/*---------------------------------------------------------------------------*\
  =========                 |
  \\      /  F ield         | OpenFOAM: The Open Source CFD Toolbox
   \\    /   O peration     | Website:  https://openfoam.org
    \\  /    A nd           | Version:  11
     \\/     M anipulation  |
\*---------------------------------------------------------------------------*/
Build  : 11-e1fc8c682ae6
Exec   : checkMesh -case /workspace/cases/lid_driven_cavity
Date   : Jun 14 2026
Time   : 16:56:10
Host   : "f8a7de1b6576"
PID    : 191
I/O    : uncollated
Case   : /workspace/cases/lid_driven_cavity
nProcs : 1
sigFpe : Enabling floating point exception trapping (FOAM_SIGFPE).
fileModificationChecking : Monitoring run-time modified files using timeStampMaster (fileModificationSkew 10)
allowSystemOperations : Allowing user-supplied system call operations

// * * * * * * * * * * * * * * * * * * * * * * * * * * * * * * * * * * * * * //
Create time

Create polyMesh for time = 0

Time = 0s

Mesh stats
    points:           3362
    internal points:  0
    faces:            6480
    internal faces:   3120
    cells:            1600
    faces per cell:   6
    boundary patches: 5
    point zones:      0
    face zones:       0
    cell zones:       0

Overall number of cells of each type:
    hexahedra:     1600
    prisms:        0
    wedges:        0
    pyramids:      0
    tet wedges:    0
    tetrahedra:    0
    polyhedra:     0

Checking topology...
    Boundary definition OK.
    Cell to face addressing OK.
    Point usage OK.
    Upper triangular ordering OK.
    Face vertices OK.
    Number of regions: 1 (OK).

Checking patch topology for multiply connected surfaces...
    Patch               Faces    Points   Surface topology                  
    bottom              40       82       ok (non-closed singly connected)  
    right               40       82       ok (non-closed singly connected)  
    top                 40       82       ok (non-closed singly connected)  
    left                40       82       ok (non-closed singly connected)  
    frontAndBack        3200     3362     ok (non-closed singly connected)  

Checking geometry...
    Overall domain bounding box (0 0 -0.005) (1 1 0.005)
    Mesh has 2 geometric (non-empty/wedge) directions (1 1 0)
    Mesh has 2 solution (non-empty) directions (1 1 0)
    All edges aligned with or perpendicular to non-empty directions.
    Boundary openness (-1.48812e-18 1.48812e-18 1.06496e-15) OK.
    Max cell openness = 1.0842e-16 OK.
    Max aspect ratio = 1 OK.
    Minimum face area = 0.00025. Maximum face area = 0.000625.  Face area magnitudes OK.
    Min volume = 6.25e-06. Max volume = 6.25e-06.  Total volume = 0.01.  Cell volumes OK.
    Mesh non-orthogonality Max: 0 average: 0
    Non-orthogonality check OK.
    Face pyramids OK.
    Max skewness = 3.55271e-14 OK.
    Coupled point location match (average 0) OK.

Mesh OK.

End

