/*---------------------------------------------------------------------------*\
  =========                 |
  \\      /  F ield         | OpenFOAM: The Open Source CFD Toolbox
   \\    /   O peration     | Website:  https://openfoam.org
    \\  /    A nd           | Version:  11
     \\/     M anipulation  |
\*---------------------------------------------------------------------------*/
Build  : 11-e1fc8c682ae6
Exec   : icoFoam -case /workspace/cases/lid_driven_cavity
Date   : Jun 14 2026
Time   : 16:56:10
Host   : "f8a7de1b6576"
PID    : 192
I/O    : uncollated
Case   : /workspace/cases/lid_driven_cavity
nProcs : 1
sigFpe : Enabling floating point exception trapping (FOAM_SIGFPE).
fileModificationChecking : Monitoring run-time modified files using timeStampMaster (fileModificationSkew 10)
allowSystemOperations : Allowing user-supplied system call operations

// * * * * * * * * * * * * * * * * * * * * * * * * * * * * * * * * * * * * * //
Create time

Create mesh for time = 0

Reading physicalProperties

Reading field p

Reading field U

Reading/calculating face flux field phi


Starting time loop

Time = 0.005s

Courant Number mean: 0 max: 0
smoothSolver:  Solving for Ux, Initial residual = 1, Final residual = 2.83395e-06, No Iterations 3
smoothSolver:  Solving for Uy, Initial residual = 0, Final residual = 0, No Iterations 0
DICPCG:  Solving for p, Initial residual = 1, Final residual = 0.0307449, No Iterations 48
time step continuity errors : sum local = 1.07539e-06, global = 4.43369e-21, cumulative = 4.43369e-21
DICPCG:  Solving for p, Initial residual = 0.128638, Final residual = 7.75696e-07, No Iterations 66
time step continuity errors : sum local = 5.80685e-11, global = 3.28634e-21, cumulative = 7.72002e-21
ExecutionTime = 0.012714 s  ClockTime = 0 s

Time = 0.01s

Courant Number mean: 0.0015739 max: 0.0246794
smoothSolver:  Solving for Ux, Initial residual = 0.299302, Final residual = 1.1338e-06, No Iterations 3
smoothSolver:  Solving for Uy, Initial residual = 0.327138, Final residual = 1.87139e-06, No Iterations 3
DICPCG:  Solving for p, Initial residual = 0.118019, Final residual = 0.00438475, No Iterations 23
time step continuity errors : sum local = 4.22698e-07, global = -9.19773e-22, cumulative = 6.80025e-21
DICPCG:  Solving for p, Initial residual = 0.0164748, Final residual = 5.17138e-07, No Iterations 61
time step continuity errors : sum local = 4.32764e-11, global = 5.67405e-21, cumulative = 1.24743e-20
ExecutionTime = 0.016224 s  ClockTime = 0 s

Time = 0.015s

Courant Number mean: 0.00292566 max: 0.044842
smoothSolver:  Solving for Ux, Initial residual = 0.168596, Final residual = 6.60907e-07, No Iterations 3
smoothSolver:  Solving for Uy, Initial residual = 0.18555, Final residual = 1.06921e-06, No Iterations 3
DICPCG:  Solving for p, Initial residual = 0.0656075, Final residual = 0.00290117, No Iterations 23
time step continuity errors : sum local = 3.10768e-07, global = -8.23045e-22, cumulative = 1.16513e-20
DICPCG:  Solving for p, Initial residual = 0.0115888, Final residual = 8.0937e-07, No Iterations 57
time step continuity errors : sum local = 7.50693e-11, global = -6.70533e-21, cumulative = 4.94592e-21
ExecutionTime = 0.019712 s  ClockTime = 0 s

Time = 0.02s

Courant Number mean: 0.00410627 max: 0.0613882
smoothSolver:  Solving for Ux, Initial residual = 0.113542, Final residual = 4.56176e-07, No Iterations 3
smoothSolver:  Solving for Uy, Initial residual = 0.124978, Final residual = 7.26356e-07, No Iterations 3
DICPCG:  Solving for p, Initial residual = 0.044175, Final residual = 0.00175468, No Iterations 24
time step continuity errors : sum local = 2.16387e-07, global = 2.27805e-20, cumulative = 2.77264e-20
DICPCG:  Solving for p, Initial residual = 0.00858446, Final residual = 5.23123e-07, No Iterations 57
time step continuity errors : sum local = 5.18556e-11, global = -1.97322e-20, cumulative = 7.99424e-21
ExecutionTime = 0.023143 s  ClockTime = 0 s

Time = 0.025s

Courant Number mean: 0.00514703 max: 0.0750404
smoothSolver:  Solving for Ux, Initial residual = 0.0830832, Final residual = 3.41418e-07, No Iterations 3
smoothSolver:  Solving for Uy, Initial residual = 0.0918798, Final residual = 5.38848e-07, No Iterations 3
DICPCG:  Solving for p, Initial residual = 0.0358096, Final residual = 0.00177451, No Iterations 23
time step continuity errors : sum local = 2.19638e-07, global = -8.52079e-21, cumulative = -5.26552e-22
DICPCG:  Solving for p, Initial residual = 0.00731349, Final residual = 8.71793e-07, No Iterations 56
time step continuity errors : sum local = 9.05771e-11, global = -1.03716e-20, cumulative = -1.08982e-20
ExecutionTime = 0.026552 s  ClockTime = 0 s

Time = 0.03s

Courant Number mean: 0.00607109 max: 0.0863692
smoothSolver:  Solving for Ux, Initial residual = 0.0641037, Final residual = 2.70221e-07, No Iterations 3
smoothSolver:  Solving for Uy, Initial residual = 0.0713168, Final residual = 4.22053e-07, No Iterations 3
DICPCG:  Solving for p, Initial residual = 0.0308454, Final residual = 0.00145412, No Iterations 23
time step continuity errors : sum local = 1.87293e-07, global = 3.66027e-21, cumulative = -7.23789e-21
DICPCG:  Solving for p, Initial residual = 0.00612823, Final residual = 7.9504e-07, No Iterations 56
time step continuity errors : sum local = 8.57921e-11, global = 1.01692e-20, cumulative = 2.93127e-21
ExecutionTime = 0.029958 s  ClockTime = 0 s

Time = 0.035s

Courant Number mean: 0.00689778 max: 0.0958263
smoothSolver:  Solving for Ux, Initial residual = 0.0516661, Final residual = 2.22208e-07, No Iterations 3
smoothSolver:  Solving for Uy, Initial residual = 0.0574902, Final residual = 3.4322e-07, No Iterations 3
DICPCG:  Solving for p, Initial residual = 0.0268664, Final residual = 0.0012022, No Iterations 23
time step continuity errors : sum local = 1.60131e-07, global = -2.84509e-21, cumulative = 8.61786e-23
DICPCG:  Solving for p, Initial residual = 0.00516025, Final residual = 7.22185e-07, No Iterations 56
time step continuity errors : sum local = 8.06582e-11, global = -1.40207e-20, cumulative = -1.39345e-20
ExecutionTime = 0.033402 s  ClockTime = 0 s

Time = 0.04s

Courant Number mean: 0.00764021 max: 0.10377
smoothSolver:  Solving for Ux, Initial residual = 0.0429192, Final residual = 1.87988e-07, No Iterations 3
smoothSolver:  Solving for Uy, Initial residual = 0.0476735, Final residual = 2.86978e-07, No Iterations 3
DICPCG:  Solving for p, Initial residual = 0.0235838, Final residual = 0.00100981, No Iterations 23
time step continuity errors : sum local = 1.38569e-07, global = 1.89842e-20, cumulative = 5.04968e-21
DICPCG:  Solving for p, Initial residual = 0.00446048, Final residual = 6.85803e-07, No Iterations 56
time step continuity errors : sum local = 7.91197e-11, global = 2.43027e-20, cumulative = 2.93523e-20
ExecutionTime = 0.036835 s  ClockTime = 0 s

Time = 0.045s

Courant Number mean: 0.00831297 max: 0.110486
smoothSolver:  Solving for Ux, Initial residual = 0.0364711, Final residual = 9.43855e-06, No Iterations 2
smoothSolver:  Solving for Uy, Initial residual = 0.0404183, Final residual = 2.45187e-07, No Iterations 3
DICPCG:  Solving for p, Initial residual = 0.0210513, Final residual = 0.000835663, No Iterations 23
time step continuity errors : sum local = 1.18206e-07, global = 1.22216e-21, cumulative = 3.05745e-20
DICPCG:  Solving for p, Initial residual = 0.00381059, Final residual = 6.18819e-07, No Iterations 56
time step continuity errors : sum local = 7.34665e-11, global = 6.85667e-20, cumulative = 9.91412e-20
ExecutionTime = 0.04018 s  ClockTime = 0 s

Time = 0.05s

Courant Number mean: 0.0089245 max: 0.116202
smoothSolver:  Solving for Ux, Initial residual = 0.0315382, Final residual = 8.28531e-06, No Iterations 2
smoothSolver:  Solving for Uy, Initial residual = 0.0348907, Final residual = 2.13127e-07, No Iterations 3
DICPCG:  Solving for p, Initial residual = 0.0189144, Final residual = 0.000707057, No Iterations 23
time step continuity errors : sum local = 1.02684e-07, global = -6.03511e-21, cumulative = 9.31061e-20
DICPCG:  Solving for p, Initial residual = 0.0033166, Final residual = 9.36694e-07, No Iterations 55
time step continuity errors : sum local = 1.13984e-10, global = -7.69319e-21, cumulative = 8.54129e-20
ExecutionTime = 0.043458 s  ClockTime = 0 s

Time = 0.055s

Courant Number mean: 0.0094959 max: 0.1211
smoothSolver:  Solving for Ux, Initial residual = 0.0276546, Final residual = 7.37379e-06, No Iterations 2
smoothSolver:  Solving for Uy, Initial residual = 0.0305709, Final residual = 1.87916e-07, No Iterations 3
DICPCG:  Solving for p, Initial residual = 0.0188881, Final residual = 0.000874044, No Iterations 22
time step continuity errors : sum local = 1.2311e-07, global = -2.45227e-20, cumulative = 6.08902e-20
DICPCG:  Solving for p, Initial residual = 0.003047, Final residual = 8.04893e-07, No Iterations 55
time step continuity errors : sum local = 1.00346e-10, global = 1.05914e-20, cumulative = 7.14816e-20
ExecutionTime = 0.046863 s  ClockTime = 0 s

Time = 0.06s

Courant Number mean: 0.0100311 max: 0.125323
smoothSolver:  Solving for Ux, Initial residual = 0.0245007, Final residual = 6.63131e-06, No Iterations 2
smoothSolver:  Solving for Uy, Initial residual = 0.0271222, Final residual = 9.11152e-06, No Iterations 2
DICPCG:  Solving for p, Initial residual = 0.0163146, Final residual = 0.000779744, No Iterations 22
time step continuity errors : sum local = 1.11855e-07, global = -2.33588e-20, cumulative = 4.81228e-20
DICPCG:  Solving for p, Initial residual = 0.00282252, Final residual = 7.67352e-07, No Iterations 55
time step continuity errors : sum local = 9.79228e-11, global = 5.85975e-21, cumulative = 5.39826e-20
ExecutionTime = 0.05014 s  ClockTime = 0 s

Time = 0.065s

Courant Number mean: 0.0105342 max: 0.128989
smoothSolver:  Solving for Ux, Initial residual = 0.0219573, Final residual = 6.01384e-06, No Iterations 2
smoothSolver:  Solving for Uy, Initial residual = 0.0243222, Final residual = 8.20521e-06, No Iterations 2
DICPCG:  Solving for p, Initial residual = 0.0163269, Final residual = 0.000665663, No Iterations 22
time step continuity errors : sum local = 9.76919e-08, global = 9.7202e-21, cumulative = 6.37028e-20
DICPCG:  Solving for p, Initial residual = 0.00275272, Final residual = 7.72554e-07, No Iterations 55
time step continuity errors : sum local = 1.00748e-10, global = 1.04403e-20, cumulative = 7.4143e-20
ExecutionTime = 0.053552 s  ClockTime = 0 s

Time = 0.07s

Courant Number mean: 0.0110075 max: 0.132193
smoothSolver:  Solving for Ux, Initial residual = 0.0198761, Final residual = 5.49335e-06, No Iterations 2
smoothSolver:  Solving for Uy, Initial residual = 0.0220155, Final residual = 7.45274e-06, No Iterations 2
DICPCG:  Solving for p, Initial residual = 0.0124407, Final residual = 0.000596207, No Iterations 22
time step continuity errors : sum local = 8.88834e-08, global = -1.29073e-20, cumulative = 6.12357e-20
DICPCG:  Solving for p, Initial residual = 0.00223781, Final residual = 6.3135e-07, No Iterations 55
time step continuity errors : sum local = 8.37631e-11, global = 7.97245e-20, cumulative = 1.4096e-19
ExecutionTime = 0.056806 s  ClockTime = 0 s

Time = 0.075s

Courant Number mean: 0.0114536 max: 0.135011
smoothSolver:  Solving for Ux, Initial residual = 0.0181384, Final residual = 5.04985e-06, No Iterations 2
smoothSolver:  Solving for Uy, Initial residual = 0.0200821, Final residual = 6.82104e-06, No Iterations 2
DICPCG:  Solving for p, Initial residual = 0.0125418, Final residual = 0.000531479, No Iterations 22
time step continuity errors : sum local = 8.05289e-08, global = -2.0093e-20, cumulative = 1.20867e-19
DICPCG:  Solving for p, Initial residual = 0.00206581, Final residual = 5.8865e-07, No Iterations 55
time step continuity errors : sum local = 7.9563e-11, global = 1.95692e-20, cumulative = 1.40436e-19
ExecutionTime = 0.060017 s  ClockTime = 0 s

Time = 0.08s

Courant Number mean: 0.0118757 max: 0.137506
smoothSolver:  Solving for Ux, Initial residual = 0.0166641, Final residual = 4.66953e-06, No Iterations 2
smoothSolver:  Solving for Uy, Initial residual = 0.0184457, Final residual = 6.28382e-06, No Iterations 2
DICPCG:  Solving for p, Initial residual = 0.0107239, Final residual = 0.000458281, No Iterations 22
time step continuity errors : sum local = 7.0767e-08, global = 2.00126e-22, cumulative = 1.40637e-19
DICPCG:  Solving for p, Initial residual = 0.00183303, Final residual = 9.65663e-07, No Iterations 54
time step continuity errors : sum local = 1.32532e-10, global = 5.48247e-20, cumulative = 1.95461e-19
ExecutionTime = 0.063188 s  ClockTime = 0 s

Time = 0.085s

Courant Number mean: 0.0122766 max: 0.139727
smoothSolver:  Solving for Ux, Initial residual = 0.0153973, Final residual = 4.345e-06, No Iterations 2
smoothSolver:  Solving for Uy, Initial residual = 0.0170484, Final residual = 5.822e-06, No Iterations 2
DICPCG:  Solving for p, Initial residual = 0.00978309, Final residual = 0.000402202, No Iterations 22
time step continuity errors : sum local = 6.30838e-08, global = 2.16308e-20, cumulative = 2.17092e-19
DICPCG:  Solving for p, Initial residual = 0.00166512, Final residual = 8.30503e-07, No Iterations 54
time step continuity errors : sum local = 1.15393e-10, global = 3.57156e-21, cumulative = 2.20664e-19
ExecutionTime = 0.066494 s  ClockTime = 0 s

Time = 0.09s

Courant Number mean: 0.0126576 max: 0.141717
smoothSolver:  Solving for Ux, Initial residual = 0.0142978, Final residual = 4.06513e-06, No Iterations 2
smoothSolver:  Solving for Uy, Initial residual = 0.0158414, Final residual = 5.42084e-06, No Iterations 2
DICPCG:  Solving for p, Initial residual = 0.00931802, Final residual = 0.000453472, No Iterations 21
time step continuity errors : sum local = 6.99985e-08, global = -1.5316e-20, cumulative = 2.05348e-19
DICPCG:  Solving for p, Initial residual = 0.00152106, Final residual = 6.99818e-07, No Iterations 54
time step continuity errors : sum local = 9.76272e-11, global = -9.47659e-21, cumulative = 1.95871e-19
ExecutionTime = 0.069715 s  ClockTime = 0 s

Time = 0.095s

Courant Number mean: 0.0130202 max: 0.143509
smoothSolver:  Solving for Ux, Initial residual = 0.0133372, Final residual = 3.82071e-06, No Iterations 2
smoothSolver:  Solving for Uy, Initial residual = 0.0147891, Final residual = 5.07048e-06, No Iterations 2
DICPCG:  Solving for p, Initial residual = 0.00759007, Final residual = 0.000334181, No Iterations 22
time step continuity errors : sum local = 5.31816e-08, global = -1.47031e-22, cumulative = 1.95724e-19
DICPCG:  Solving for p, Initial residual = 0.00141094, Final residual = 7.46089e-07, No Iterations 54
time step continuity errors : sum local = 1.05185e-10, global = 4.11016e-20, cumulative = 2.36826e-19
ExecutionTime = 0.072941 s  ClockTime = 0 s

Time = 0.1s

Courant Number mean: 0.0133672 max: 0.145132
smoothSolver:  Solving for Ux, Initial residual = 0.0124878, Final residual = 3.6035e-06, No Iterations 2
smoothSolver:  Solving for Uy, Initial residual = 0.0138643, Final residual = 4.76169e-06, No Iterations 2
DICPCG:  Solving for p, Initial residual = 0.00716064, Final residual = 0.000298753, No Iterations 22
time step continuity errors : sum local = 4.80394e-08, global = 2.80317e-20, cumulative = 2.64857e-19
DICPCG:  Solving for p, Initial residual = 0.00132005, Final residual = 6.77699e-07, No Iterations 54
time step continuity errors : sum local = 9.64641e-11, global = -4.16111e-20, cumulative = 2.23246e-19
ExecutionTime = 0.076119 s  ClockTime = 0 s

Time = 0.105s

Courant Number mean: 0.013698 max: 0.14661
smoothSolver:  Solving for Ux, Initial residual = 0.011731, Final residual = 3.41009e-06, No Iterations 2
smoothSolver:  Solving for Uy, Initial residual = 0.0130484, Final residual = 4.48813e-06, No Iterations 2
DICPCG:  Solving for p, Initial residual = 0.00640018, Final residual = 0.000272056, No Iterations 22
time step continuity errors : sum local = 4.41798e-08, global = -3.11599e-21, cumulative = 2.2013e-19
DICPCG:  Solving for p, Initial residual = 0.00124444, Final residual = 6.24472e-07, No Iterations 54
time step continuity errors : sum local = 8.96431e-11, global = -2.30688e-20, cumulative = 1.97061e-19
ExecutionTime = 0.079335 s  ClockTime = 0 s

Time = 0.11s

Courant Number mean: 0.0140141 max: 0.147964
smoothSolver:  Solving for Ux, Initial residual = 0.0110637, Final residual = 3.23553e-06, No Iterations 2
smoothSolver:  Solving for Uy, Initial residual = 0.0123212, Final residual = 4.24337e-06, No Iterations 2
DICPCG:  Solving for p, Initial residual = 0.00600552, Final residual = 0.000251511, No Iterations 22
time step continuity errors : sum local = 4.11482e-08, global = 3.05106e-20, cumulative = 2.27572e-19
DICPCG:  Solving for p, Initial residual = 0.00117495, Final residual = 5.78397e-07, No Iterations 54
time step continuity errors : sum local = 8.36834e-11, global = -1.57303e-20, cumulative = 2.11842e-19
ExecutionTime = 0.082562 s  ClockTime = 0 s

Time = 0.115s

Courant Number mean: 0.0143184 max: 0.149207
smoothSolver:  Solving for Ux, Initial residual = 0.0104757, Final residual = 3.07765e-06, No Iterations 2
smoothSolver:  Solving for Uy, Initial residual = 0.0116698, Final residual = 4.0234e-06, No Iterations 2
DICPCG:  Solving for p, Initial residual = 0.0056597, Final residual = 0.000227189, No Iterations 22
time step continuity errors : sum local = 3.75363e-08, global = 3.22435e-21, cumulative = 2.15066e-19
DICPCG:  Solving for p, Initial residual = 0.0011001, Final residual = 5.32968e-07, No Iterations 54
time step continuity errors : sum local = 7.76687e-11, global = 2.55677e-20, cumulative = 2.40634e-19
ExecutionTime = 0.085756 s  ClockTime = 0 s

Time = 0.12s

Courant Number mean: 0.0146109 max: 0.150353
smoothSolver:  Solving for Ux, Initial residual = 0.00994864, Final residual = 2.93421e-06, No Iterations 2
smoothSolver:  Solving for Uy, Initial residual = 0.0110843, Final residual = 3.8249e-06, No Iterations 2
DICPCG:  Solving for p, Initial residual = 0.00531357, Final residual = 0.000212188, No Iterations 22
time step continuity errors : sum local = 3.52803e-08, global = 7.9803e-20, cumulative = 3.20437e-19
DICPCG:  Solving for p, Initial residual = 0.00104242, Final residual = 5.03224e-07, No Iterations 54
time step continuity errors : sum local = 7.3808e-11, global = 2.82689e-22, cumulative = 3.20719e-19
ExecutionTime = 0.088846 s  ClockTime = 0 s

Time = 0.125s

Courant Number mean: 0.0148919 max: 0.151414
smoothSolver:  Solving for Ux, Initial residual = 0.00947536, Final residual = 2.80371e-06, No Iterations 2
smoothSolver:  Solving for Uy, Initial residual = 0.0105543, Final residual = 3.64476e-06, No Iterations 2
DICPCG:  Solving for p, Initial residual = 0.00502548, Final residual = 0.000196256, No Iterations 22
time step continuity errors : sum local = 3.28708e-08, global = -6.08391e-21, cumulative = 3.14635e-19
DICPCG:  Solving for p, Initial residual = 0.000985226, Final residual = 4.73404e-07, No Iterations 54
time step continuity errors : sum local = 6.9847e-11, global = 7.47337e-21, cumulative = 3.22109e-19
ExecutionTime = 0.092083 s  ClockTime = 0 s

Time = 0.13s

Courant Number mean: 0.0151627 max: 0.1524
smoothSolver:  Solving for Ux, Initial residual = 0.00904502, Final residual = 2.68391e-06, No Iterations 2
smoothSolver:  Solving for Uy, Initial residual = 0.0100721, Final residual = 3.48047e-06, No Iterations 2
DICPCG:  Solving for p, Initial residual = 0.00477006, Final residual = 0.000183788, No Iterations 22
time step continuity errors : sum local = 3.09619e-08, global = -6.71505e-21, cumulative = 3.15394e-19
DICPCG:  Solving for p, Initial residual = 0.000940416, Final residual = 9.83456e-07, No Iterations 53
time step continuity errors : sum local = 1.46035e-10, global = -1.50692e-21, cumulative = 3.13887e-19
ExecutionTime = 0.095252 s  ClockTime = 0 s

Time = 0.135s

Courant Number mean: 0.0154292 max: 0.15332
smoothSolver:  Solving for Ux, Initial residual = 0.00865006, Final residual = 2.57302e-06, No Iterations 2
smoothSolver:  Solving for Uy, Initial residual = 0.0096318, Final residual = 3.33021e-06, No Iterations 2
DICPCG:  Solving for p, Initial residual = 0.00453998, Final residual = 0.000172103, No Iterations 22
time step continuity errors : sum local = 2.91607e-08, global = 5.99334e-21, cumulative = 3.1988e-19
DICPCG:  Solving for p, Initial residual = 0.000896802, Final residual = 9.48111e-07, No Iterations 53
time step continuity errors : sum local = 1.41508e-10, global = 3.82985e-22, cumulative = 3.20263e-19
ExecutionTime = 0.098403 s  ClockTime = 0 s

Time = 0.14s

Courant Number mean: 0.0156897 max: 0.154179
smoothSolver:  Solving for Ux, Initial residual = 0.00828457, Final residual = 2.46979e-06, No Iterations 2
smoothSolver:  Solving for Uy, Initial residual = 0.00922811, Final residual = 3.19218e-06, No Iterations 2
DICPCG:  Solving for p, Initial residual = 0.00434047, Final residual = 0.000162542, No Iterations 22
time step continuity errors : sum local = 2.76754e-08, global = 2.0364e-20, cumulative = 3.40627e-19
DICPCG:  Solving for p, Initial residual = 0.000855885, Final residual = 9.1256e-07, No Iterations 53
time step continuity errors : sum local = 1.36859e-10, global = -2.49108e-20, cumulative = 3.15716e-19
ExecutionTime = 0.101557 s  ClockTime = 0 s

Time = 0.145s

Courant Number mean: 0.0159447 max: 0.154985
smoothSolver:  Solving for Ux, Initial residual = 0.00794423, Final residual = 2.37375e-06, No Iterations 2
smoothSolver:  Solving for Uy, Initial residual = 0.00885646, Final residual = 3.06489e-06, No Iterations 2
DICPCG:  Solving for p, Initial residual = 0.00413664, Final residual = 0.000154415, No Iterations 22
time step continuity errors : sum local = 2.6391e-08, global = 5.75048e-20, cumulative = 3.73221e-19
DICPCG:  Solving for p, Initial residual = 0.000827421, Final residual = 9.10055e-07, No Iterations 53
time step continuity errors : sum local = 1.37082e-10, global = 6.33434e-21, cumulative = 3.79556e-19
ExecutionTime = 0.104643 s  ClockTime = 0 s

Time = 0.15s

Courant Number mean: 0.0161942 max: 0.155743
smoothSolver:  Solving for Ux, Initial residual = 0.00762786, Final residual = 2.28533e-06, No Iterations 2
smoothSolver:  Solving for Uy, Initial residual = 0.00851362, Final residual = 2.94723e-06, No Iterations 2
DICPCG:  Solving for p, Initial residual = 0.00397662, Final residual = 0.000147244, No Iterations 22
time step continuity errors : sum local = 2.52579e-08, global = -5.89038e-21, cumulative = 3.73665e-19
DICPCG:  Solving for p, Initial residual = 0.000796185, Final residual = 8.82536e-07, No Iterations 53
time step continuity errors : sum local = 1.335e-10, global = 3.04202e-20, cumulative = 4.04085e-19
ExecutionTime = 0.107736 s  ClockTime = 0 s

Time = 0.155s

Courant Number mean: 0.0164371 max: 0.156457
smoothSolver:  Solving for Ux, Initial residual = 0.00733205, Final residual = 2.20389e-06, No Iterations 2
smoothSolver:  Solving for Uy, Initial residual = 0.00819617, Final residual = 2.83825e-06, No Iterations 2
DICPCG:  Solving for p, Initial residual = 0.00386314, Final residual = 0.000140924, No Iterations 22
time step continuity errors : sum local = 2.4255e-08, global = 3.95214e-20, cumulative = 4.43607e-19
DICPCG:  Solving for p, Initial residual = 0.000766389, Final residual = 8.49525e-07, No Iterations 53
time step continuity errors : sum local = 1.29028e-10, global = -3.87553e-20, cumulative = 4.04852e-19
ExecutionTime = 0.110818 s  ClockTime = 0 s

Time = 0.16s

Courant Number mean: 0.0166741 max: 0.157132
smoothSolver:  Solving for Ux, Initial residual = 0.00705631, Final residual = 2.128e-06, No Iterations 2
smoothSolver:  Solving for Uy, Initial residual = 0.00790113, Final residual = 2.73674e-06, No Iterations 2
DICPCG:  Solving for p, Initial residual = 0.00370563, Final residual = 0.000135213, No Iterations 22
time step continuity errors : sum local = 2.33295e-08, global = 2.45313e-20, cumulative = 4.29383e-19
DICPCG:  Solving for p, Initial residual = 0.000741149, Final residual = 8.1845e-07, No Iterations 53
time step continuity errors : sum local = 1.24772e-10, global = -7.68383e-20, cumulative = 3.52545e-19
ExecutionTime = 0.113902 s  ClockTime = 0 s

Time = 0.165s

Courant Number mean: 0.016905 max: 0.15777
smoothSolver:  Solving for Ux, Initial residual = 0.00679727, Final residual = 2.0571e-06, No Iterations 2
smoothSolver:  Solving for Uy, Initial residual = 0.00762687, Final residual = 2.64224e-06, No Iterations 2
DICPCG:  Solving for p, Initial residual = 0.00353717, Final residual = 0.000129204, No Iterations 22
time step continuity errors : sum local = 2.23764e-08, global = -2.54302e-20, cumulative = 3.27114e-19
DICPCG:  Solving for p, Initial residual = 0.000718044, Final residual = 7.9508e-07, No Iterations 53
time step continuity errors : sum local = 1.21658e-10, global = -1.4421e-20, cumulative = 3.12693e-19
ExecutionTime = 0.11701 s  ClockTime = 0 s

Time = 0.17s

Courant Number mean: 0.0171305 max: 0.158375
smoothSolver:  Solving for Ux, Initial residual = 0.00655476, Final residual = 1.99073e-06, No Iterations 2
smoothSolver:  Solving for Uy, Initial residual = 0.00737059, Final residual = 2.55383e-06, No Iterations 2
DICPCG:  Solving for p, Initial residual = 0.00342571, Final residual = 0.000124713, No Iterations 22
time step continuity errors : sum local = 2.16468e-08, global = 6.00885e-21, cumulative = 3.18702e-19
DICPCG:  Solving for p, Initial residual = 0.000696338, Final residual = 7.69594e-07, No Iterations 53
time step continuity errors : sum local = 1.18177e-10, global = 1.98486e-20, cumulative = 3.38551e-19
ExecutionTime = 0.120169 s  ClockTime = 0 s

Time = 0.175s

Courant Number mean: 0.0173499 max: 0.158953
smoothSolver:  Solving for Ux, Initial residual = 0.00633171, Final residual = 1.92823e-06, No Iterations 2
smoothSolver:  Solving for Uy, Initial residual = 0.00713098, Final residual = 2.47112e-06, No Iterations 2
DICPCG:  Solving for p, Initial residual = 0.00331484, Final residual = 0.000119697, No Iterations 22
time step continuity errors : sum local = 2.08316e-08, global = -5.03232e-20, cumulative = 2.88228e-19
DICPCG:  Solving for p, Initial residual = 0.000674123, Final residual = 7.28931e-07, No Iterations 53
time step continuity errors : sum local = 1.12243e-10, global = 8.56854e-20, cumulative = 3.73913e-19
ExecutionTime = 0.12335 s  ClockTime = 0 s

Time = 0.18s

Courant Number mean: 0.0175648 max: 0.159504
smoothSolver:  Solving for Ux, Initial residual = 0.00612481, Final residual = 1.86936e-06, No Iterations 2
smoothSolver:  Solving for Uy, Initial residual = 0.00690618, Final residual = 2.3935e-06, No Iterations 2
DICPCG:  Solving for p, Initial residual = 0.00349579, Final residual = 0.000171069, No Iterations 21
time step continuity errors : sum local = 2.86906e-08, global = 2.935e-20, cumulative = 4.03263e-19
DICPCG:  Solving for p, Initial residual = 0.000693765, Final residual = 6.77376e-07, No Iterations 53
time step continuity errors : sum local = 1.04514e-10, global = 2.73238e-20, cumulative = 4.30587e-19
ExecutionTime = 0.126509 s  ClockTime = 0 s

Time = 0.185s

Courant Number mean: 0.0177741 max: 0.160028
smoothSolver:  Solving for Ux, Initial residual = 0.005932, Final residual = 1.81385e-06, No Iterations 2
smoothSolver:  Solving for Uy, Initial residual = 0.00669514, Final residual = 2.32063e-06, No Iterations 2
DICPCG:  Solving for p, Initial residual = 0.00314292, Final residual = 0.000115409, No Iterations 22
time step continuity errors : sum local = 2.00755e-08, global = 2.10786e-20, cumulative = 4.51666e-19
DICPCG:  Solving for p, Initial residual = 0.000645131, Final residual = 7.1174e-07, No Iterations 53
time step continuity errors : sum local = 1.10193e-10, global = -5.88099e-20, cumulative = 3.92856e-19
ExecutionTime = 0.129654 s  ClockTime = 0 s

Time = 0.19s

Courant Number mean: 0.0179782 max: 0.160529
smoothSolver:  Solving for Ux, Initial residual = 0.00574982, Final residual = 1.76106e-06, No Iterations 2
smoothSolver:  Solving for Uy, Initial residual = 0.00649654, Final residual = 2.25174e-06, No Iterations 2
DICPCG:  Solving for p, Initial residual = 0.00305764, Final residual = 0.000109227, No Iterations 22
time step continuity errors : sum local = 1.90903e-08, global = -5.81218e-20, cumulative = 3.34734e-19
DICPCG:  Solving for p, Initial residual = 0.000625381, Final residual = 6.66264e-07, No Iterations 53
time step continuity errors : sum local = 1.03399e-10, global = 3.65084e-20, cumulative = 3.71242e-19
ExecutionTime = 0.132862 s  ClockTime = 0 s

Time = 0.195s

Courant Number mean: 0.0181783 max: 0.161008
smoothSolver:  Solving for Ux, Initial residual = 0.00557831, Final residual = 1.71097e-06, No Iterations 2
smoothSolver:  Solving for Uy, Initial residual = 0.00630914, Final residual = 2.18683e-06, No Iterations 2
DICPCG:  Solving for p, Initial residual = 0.00298855, Final residual = 0.000106549, No Iterations 22
time step continuity errors : sum local = 1.86359e-08, global = -3.50434e-21, cumulative = 3.67738e-19
DICPCG:  Solving for p, Initial residual = 0.000611271, Final residual = 9.59203e-07, No Iterations 52
time step continuity errors : sum local = 1.49594e-10, global = -1.71994e-20, cumulative = 3.50539e-19
ExecutionTime = 0.136004 s  ClockTime = 0 s

Time = 0.2s

Courant Number mean: 0.0183739 max: 0.161467
smoothSolver:  Solving for Ux, Initial residual = 0.00541602, Final residual = 1.66335e-06, No Iterations 2
smoothSolver:  Solving for Uy, Initial residual = 0.0061322, Final residual = 2.12543e-06, No Iterations 2
DICPCG:  Solving for p, Initial residual = 0.00294457, Final residual = 0.000104059, No Iterations 22
time step continuity errors : sum local = 1.82182e-08, global = -8.26101e-20, cumulative = 2.67928e-19
DICPCG:  Solving for p, Initial residual = 0.000598441, Final residual = 9.04619e-07, No Iterations 52
time step continuity errors : sum local = 1.41458e-10, global = -1.08522e-20, cumulative = 2.57076e-19
ExecutionTime = 0.139145 s  ClockTime = 0 s

Time = 0.205s

Courant Number mean: 0.0185649 max: 0.161907
smoothSolver:  Solving for Ux, Initial residual = 0.00526245, Final residual = 1.6181e-06, No Iterations 2
smoothSolver:  Solving for Uy, Initial residual = 0.00596474, Final residual = 2.06736e-06, No Iterations 2
DICPCG:  Solving for p, Initial residual = 0.00307777, Final residual = 0.000153763, No Iterations 21
time step continuity errors : sum local = 2.59335e-08, global = 1.50196e-20, cumulative = 2.72096e-19
DICPCG:  Solving for p, Initial residual = 0.000629471, Final residual = 8.38801e-07, No Iterations 52
time step continuity errors : sum local = 1.3152e-10, global = 2.56097e-20, cumulative = 2.97706e-19
ExecutionTime = 0.142212 s  ClockTime = 0 s

Time = 0.21s

Courant Number mean: 0.0187516 max: 0.162329
smoothSolver:  Solving for Ux, Initial residual = 0.00511681, Final residual = 1.57515e-06, No Iterations 2
smoothSolver:  Solving for Uy, Initial residual = 0.00580648, Final residual = 2.01243e-06, No Iterations 2
DICPCG:  Solving for p, Initial residual = 0.00274925, Final residual = 9.75831e-05, No Iterations 22
time step continuity errors : sum local = 1.71529e-08, global = 2.27537e-20, cumulative = 3.20459e-19
DICPCG:  Solving for p, Initial residual = 0.000560575, Final residual = 8.13374e-07, No Iterations 52
time step continuity errors : sum local = 1.27813e-10, global = -2.10426e-20, cumulative = 2.99417e-19
ExecutionTime = 0.14541 s  ClockTime = 0 s

Time = 0.215s

Courant Number mean: 0.0189345 max: 0.162734
smoothSolver:  Solving for Ux, Initial residual = 0.00497814, Final residual = 1.53408e-06, No Iterations 2
smoothSolver:  Solving for Uy, Initial residual = 0.00565577, Final residual = 1.96009e-06, No Iterations 2
DICPCG:  Solving for p, Initial residual = 0.00308824, Final residual = 0.000138213, No Iterations 21
time step continuity errors : sum local = 2.35115e-08, global = 7.25392e-20, cumulative = 3.71956e-19
DICPCG:  Solving for p, Initial residual = 0.000567724, Final residual = 7.9155e-07, No Iterations 52
time step continuity errors : sum local = 1.24661e-10, global = 6.67659e-21, cumulative = 3.78632e-19
ExecutionTime = 0.148572 s  ClockTime = 0 s

Time = 0.22s

Courant Number mean: 0.0191147 max: 0.163124
smoothSolver:  Solving for Ux, Initial residual = 0.00484612, Final residual = 1.49504e-06, No Iterations 2
smoothSolver:  Solving for Uy, Initial residual = 0.00551199, Final residual = 1.91022e-06, No Iterations 2
DICPCG:  Solving for p, Initial residual = 0.00275057, Final residual = 9.90344e-05, No Iterations 22
time step continuity errors : sum local = 1.73046e-08, global = 1.86798e-21, cumulative = 3.805e-19
DICPCG:  Solving for p, Initial residual = 0.000542841, Final residual = 8.42247e-07, No Iterations 51
time step continuity errors : sum local = 1.32962e-10, global = 4.47259e-20, cumulative = 4.25226e-19
ExecutionTime = 0.151731 s  ClockTime = 0 s

Time = 0.225s

Courant Number mean: 0.0192908 max: 0.1635
smoothSolver:  Solving for Ux, Initial residual = 0.00472036, Final residual = 1.45794e-06, No Iterations 2
smoothSolver:  Solving for Uy, Initial residual = 0.00537654, Final residual = 1.86308e-06, No Iterations 2
DICPCG:  Solving for p, Initial residual = 0.00254604, Final residual = 9.24441e-05, No Iterations 22
time step continuity errors : sum local = 1.62721e-08, global = -1.05803e-19, cumulative = 3.19423e-19
DICPCG:  Solving for p, Initial residual = 0.000530893, Final residual = 8.42963e-07, No Iterations 51
time step continuity errors : sum local = 1.33411e-10, global = 7.47548e-20, cumulative = 3.94178e-19
ExecutionTime = 0.154884 s  ClockTime = 0 s

Time = 0.23s

Courant Number mean: 0.0194631 max: 0.163861
smoothSolver:  Solving for Ux, Initial residual = 0.00460015, Final residual = 1.42264e-06, No Iterations 2
smoothSolver:  Solving for Uy, Initial residual = 0.00524701, Final residual = 1.81795e-06, No Iterations 2
DICPCG:  Solving for p, Initial residual = 0.00250165, Final residual = 9.11132e-05, No Iterations 22
time step continuity errors : sum local = 1.60374e-08, global = -2.57342e-20, cumulative = 3.68443e-19
DICPCG:  Solving for p, Initial residual = 0.000520493, Final residual = 7.80879e-07, No Iterations 51
time step continuity errors : sum local = 1.23774e-10, global = -4.51382e-20, cumulative = 3.23305e-19
ExecutionTime = 0.157961 s  ClockTime = 0 s

Time = 0.235s

Courant Number mean: 0.0196316 max: 0.16421
smoothSolver:  Solving for Ux, Initial residual = 0.00448575, Final residual = 1.38901e-06, No Iterations 2
smoothSolver:  Solving for Uy, Initial residual = 0.00512338, Final residual = 1.77493e-06, No Iterations 2
DICPCG:  Solving for p, Initial residual = 0.00264226, Final residual = 9.60204e-05, No Iterations 22
time step continuity errors : sum local = 1.67993e-08, global = 1.05559e-20, cumulative = 3.33861e-19
DICPCG:  Solving for p, Initial residual = 0.000522029, Final residual = 7.3886e-07, No Iterations 51
time step continuity errors : sum local = 1.17161e-10, global = 2.68559e-20, cumulative = 3.60717e-19
ExecutionTime = 0.161014 s  ClockTime = 0 s

Time = 0.24s

Courant Number mean: 0.0197968 max: 0.164547
smoothSolver:  Solving for Ux, Initial residual = 0.00437584, Final residual = 1.35695e-06, No Iterations 2
smoothSolver:  Solving for Uy, Initial residual = 0.00500528, Final residual = 1.73386e-06, No Iterations 2
DICPCG:  Solving for p, Initial residual = 0.00259686, Final residual = 9.05136e-05, No Iterations 22
time step continuity errors : sum local = 1.58909e-08, global = 5.14682e-20, cumulative = 4.12185e-19
DICPCG:  Solving for p, Initial residual = 0.000505571, Final residual = 6.971e-07, No Iterations 51
time step continuity errors : sum local = 1.10918e-10, global = -3.39574e-20, cumulative = 3.78228e-19
ExecutionTime = 0.164174 s  ClockTime = 0 s

Time = 0.245s

Courant Number mean: 0.0199586 max: 0.164873
smoothSolver:  Solving for Ux, Initial residual = 0.00427015, Final residual = 1.3265e-06, No Iterations 2
smoothSolver:  Solving for Uy, Initial residual = 0.00489287, Final residual = 1.69466e-06, No Iterations 2
DICPCG:  Solving for p, Initial residual = 0.00234383, Final residual = 8.57022e-05, No Iterations 22
time step continuity errors : sum local = 1.51257e-08, global = -6.70132e-20, cumulative = 3.11215e-19
DICPCG:  Solving for p, Initial residual = 0.000489278, Final residual = 9.59189e-07, No Iterations 50
time step continuity errors : sum local = 1.5276e-10, global = 5.21732e-20, cumulative = 3.63388e-19
ExecutionTime = 0.167257 s  ClockTime = 0 s

Time = 0.25s

Courant Number mean: 0.0201174 max: 0.165187
smoothSolver:  Solving for Ux, Initial residual = 0.00416924, Final residual = 1.29747e-06, No Iterations 2
smoothSolver:  Solving for Uy, Initial residual = 0.00478515, Final residual = 1.6571e-06, No Iterations 2
DICPCG:  Solving for p, Initial residual = 0.00229953, Final residual = 8.45036e-05, No Iterations 22
time step continuity errors : sum local = 1.49145e-08, global = -2.02916e-20, cumulative = 3.43096e-19
DICPCG:  Solving for p, Initial residual = 0.000479802, Final residual = 9.22003e-07, No Iterations 50
time step continuity errors : sum local = 1.46938e-10, global = -2.28931e-20, cumulative = 3.20203e-19
ExecutionTime = 0.170409 s  ClockTime = 0 s

Time = 0.255s

Courant Number mean: 0.0202735 max: 0.165494
smoothSolver:  Solving for Ux, Initial residual = 0.00407244, Final residual = 1.26974e-06, No Iterations 2
smoothSolver:  Solving for Uy, Initial residual = 0.004682, Final residual = 1.62111e-06, No Iterations 2
DICPCG:  Solving for p, Initial residual = 0.00230547, Final residual = 8.51411e-05, No Iterations 22
time step continuity errors : sum local = 1.4988e-08, global = -1.10443e-20, cumulative = 3.09159e-19
DICPCG:  Solving for p, Initial residual = 0.000474517, Final residual = 9.1703e-07, No Iterations 50
time step continuity errors : sum local = 1.46197e-10, global = 2.99332e-20, cumulative = 3.39092e-19
ExecutionTime = 0.173558 s  ClockTime = 0 s

Time = 0.26s

Courant Number mean: 0.0204269 max: 0.165791
smoothSolver:  Solving for Ux, Initial residual = 0.00398137, Final residual = 1.24313e-06, No Iterations 2
smoothSolver:  Solving for Uy, Initial residual = 0.00458352, Final residual = 1.58672e-06, No Iterations 2
DICPCG:  Solving for p, Initial residual = 0.00221885, Final residual = 8.1512e-05, No Iterations 22
time step continuity errors : sum local = 1.4401e-08, global = 4.15662e-20, cumulative = 3.80658e-19
DICPCG:  Solving for p, Initial residual = 0.000464133, Final residual = 8.91312e-07, No Iterations 50
time step continuity errors : sum local = 1.42309e-10, global = 4.36898e-20, cumulative = 4.24348e-19
ExecutionTime = 0.176686 s  ClockTime = 0 s

Time = 0.265s

Courant Number mean: 0.0205788 max: 0.166079
smoothSolver:  Solving for Ux, Initial residual = 0.00389489, Final residual = 1.21755e-06, No Iterations 2
smoothSolver:  Solving for Uy, Initial residual = 0.00448855, Final residual = 1.55361e-06, No Iterations 2
DICPCG:  Solving for p, Initial residual = 0.00216335, Final residual = 8.00596e-05, No Iterations 22
time step continuity errors : sum local = 1.41521e-08, global = -2.69009e-20, cumulative = 3.97447e-19
DICPCG:  Solving for p, Initial residual = 0.000454898, Final residual = 8.85354e-07, No Iterations 50
time step continuity errors : sum local = 1.41678e-10, global = 1.74438e-20, cumulative = 4.14891e-19
ExecutionTime = 0.179803 s  ClockTime = 0 s

Time = 0.27s

Courant Number mean: 0.0207298 max: 0.166358
smoothSolver:  Solving for Ux, Initial residual = 0.00381206, Final residual = 1.19291e-06, No Iterations 2
smoothSolver:  Solving for Uy, Initial residual = 0.0043974, Final residual = 1.52183e-06, No Iterations 2
DICPCG:  Solving for p, Initial residual = 0.00212503, Final residual = 7.8692e-05, No Iterations 22
time step continuity errors : sum local = 1.39233e-08, global = 4.66836e-20, cumulative = 4.61574e-19
DICPCG:  Solving for p, Initial residual = 0.000447026, Final residual = 8.91157e-07, No Iterations 50
time step continuity errors : sum local = 1.42898e-10, global = 4.24095e-21, cumulative = 4.65815e-19
ExecutionTime = 0.182927 s  ClockTime = 0 s

Time = 0.275s

Courant Number mean: 0.0208792 max: 0.166629
smoothSolver:  Solving for Ux, Initial residual = 0.00373212, Final residual = 1.169e-06, No Iterations 2
smoothSolver:  Solving for Uy, Initial residual = 0.00430971, Final residual = 1.49129e-06, No Iterations 2
DICPCG:  Solving for p, Initial residual = 0.00208487, Final residual = 7.73965e-05, No Iterations 22
time step continuity errors : sum local = 1.36992e-08, global = -1.46954e-19, cumulative = 3.18862e-19
DICPCG:  Solving for p, Initial residual = 0.000439575, Final residual = 9.05075e-07, No Iterations 50
time step continuity errors : sum local = 1.45402e-10, global = -2.68718e-20, cumulative = 2.9199e-19
ExecutionTime = 0.186066 s  ClockTime = 0 s

Time = 0.28s

Courant Number mean: 0.0210266 max: 0.166892
smoothSolver:  Solving for Ux, Initial residual = 0.00365501, Final residual = 1.14589e-06, No Iterations 2
smoothSolver:  Solving for Uy, Initial residual = 0.00422542, Final residual = 1.46193e-06, No Iterations 2
DICPCG:  Solving for p, Initial residual = 0.00204812, Final residual = 7.60939e-05, No Iterations 22
time step continuity errors : sum local = 1.34769e-08, global = 4.62646e-20, cumulative = 3.38254e-19
DICPCG:  Solving for p, Initial residual = 0.000432022, Final residual = 9.19225e-07, No Iterations 50
time step continuity errors : sum local = 1.4791e-10, global = -2.01203e-20, cumulative = 3.18134e-19
ExecutionTime = 0.189164 s  ClockTime = 0 s

Time = 0.285s

Courant Number mean: 0.0211719 max: 0.167148
smoothSolver:  Solving for Ux, Initial residual = 0.00358073, Final residual = 1.12355e-06, No Iterations 2
smoothSolver:  Solving for Uy, Initial residual = 0.00414427, Final residual = 1.43369e-06, No Iterations 2
DICPCG:  Solving for p, Initial residual = 0.0020187, Final residual = 7.48409e-05, No Iterations 22
time step continuity errors : sum local = 1.32632e-08, global = 7.57697e-21, cumulative = 3.25711e-19
DICPCG:  Solving for p, Initial residual = 0.000425152, Final residual = 9.33913e-07, No Iterations 50
time step continuity errors : sum local = 1.505e-10, global = -4.93037e-20, cumulative = 2.76407e-19
ExecutionTime = 0.192266 s  ClockTime = 0 s

Time = 0.29s

Courant Number mean: 0.0213156 max: 0.167396
smoothSolver:  Solving for Ux, Initial residual = 0.0035091, Final residual = 1.10188e-06, No Iterations 2
smoothSolver:  Solving for Uy, Initial residual = 0.00406644, Final residual = 1.40648e-06, No Iterations 2
DICPCG:  Solving for p, Initial residual = 0.0019822, Final residual = 7.36795e-05, No Iterations 22
time step continuity errors : sum local = 1.30627e-08, global = -2.21232e-20, cumulative = 2.54284e-19
DICPCG:  Solving for p, Initial residual = 0.000417963, Final residual = 9.51608e-07, No Iterations 50
time step continuity errors : sum local = 1.53579e-10, global = 5.44359e-20, cumulative = 3.0872e-19
ExecutionTime = 0.195374 s  ClockTime = 0 s

Time = 0.295s

Courant Number mean: 0.021457 max: 0.167638
smoothSolver:  Solving for Ux, Initial residual = 0.00343993, Final residual = 1.08097e-06, No Iterations 2
smoothSolver:  Solving for Uy, Initial residual = 0.00399141, Final residual = 1.38024e-06, No Iterations 2
DICPCG:  Solving for p, Initial residual = 0.00194517, Final residual = 7.24038e-05, No Iterations 22
time step continuity errors : sum local = 1.28471e-08, global = -4.77842e-20, cumulative = 2.60936e-19
DICPCG:  Solving for p, Initial residual = 0.000411549, Final residual = 9.58521e-07, No Iterations 50
time step continuity errors : sum local = 1.54917e-10, global = -2.50779e-20, cumulative = 2.35858e-19
ExecutionTime = 0.198477 s  ClockTime = 0 s

Time = 0.3s

Courant Number mean: 0.0215966 max: 0.167873
smoothSolver:  Solving for Ux, Initial residual = 0.00337291, Final residual = 1.06066e-06, No Iterations 2
smoothSolver:  Solving for Uy, Initial residual = 0.00391898, Final residual = 1.35493e-06, No Iterations 2
DICPCG:  Solving for p, Initial residual = 0.00191341, Final residual = 7.1246e-05, No Iterations 22
time step continuity errors : sum local = 1.26495e-08, global = 2.36214e-20, cumulative = 2.59479e-19
DICPCG:  Solving for p, Initial residual = 0.000404411, Final residual = 9.60617e-07, No Iterations 50
time step continuity errors : sum local = 1.55481e-10, global = 3.86429e-20, cumulative = 2.98122e-19
ExecutionTime = 0.201547 s  ClockTime = 0 s

Time = 0.305s

Courant Number mean: 0.0217343 max: 0.168102
smoothSolver:  Solving for Ux, Initial residual = 0.00330805, Final residual = 1.04107e-06, No Iterations 2
smoothSolver:  Solving for Uy, Initial residual = 0.00384909, Final residual = 1.3305e-06, No Iterations 2
DICPCG:  Solving for p, Initial residual = 0.00220603, Final residual = 9.7745e-05, No Iterations 21
time step continuity errors : sum local = 1.69267e-08, global = -5.18973e-21, cumulative = 2.92933e-19
DICPCG:  Solving for p, Initial residual = 0.000410756, Final residual = 7.74247e-07, No Iterations 50
time step continuity errors : sum local = 1.25614e-10, global = 2.45916e-20, cumulative = 3.17524e-19
ExecutionTime = 0.204572 s  ClockTime = 0 s

Time = 0.31s

Courant Number mean: 0.0218705 max: 0.168324
smoothSolver:  Solving for Ux, Initial residual = 0.00324543, Final residual = 1.02203e-06, No Iterations 2
smoothSolver:  Solving for Uy, Initial residual = 0.00378101, Final residual = 1.30676e-06, No Iterations 2
DICPCG:  Solving for p, Initial residual = 0.00228502, Final residual = 9.89099e-05, No Iterations 21
time step continuity errors : sum local = 1.70473e-08, global = 4.45627e-20, cumulative = 3.62087e-19
DICPCG:  Solving for p, Initial residual = 0.000443955, Final residual = 6.2089e-07, No Iterations 51
time step continuity errors : sum local = 1.01011e-10, global = 8.54829e-21, cumulative = 3.70635e-19
ExecutionTime = 0.207611 s  ClockTime = 0 s

Time = 0.315s

Courant Number mean: 0.0220051 max: 0.168541
smoothSolver:  Solving for Ux, Initial residual = 0.00318485, Final residual = 1.00362e-06, No Iterations 2
smoothSolver:  Solving for Uy, Initial residual = 0.0037166, Final residual = 1.28418e-06, No Iterations 2
DICPCG:  Solving for p, Initial residual = 0.00186623, Final residual = 7.02224e-05, No Iterations 22
time step continuity errors : sum local = 1.24414e-08, global = 2.1405e-20, cumulative = 3.9204e-19
DICPCG:  Solving for p, Initial residual = 0.000387122, Final residual = 9.89461e-07, No Iterations 50
time step continuity errors : sum local = 1.60864e-10, global = -3.65012e-20, cumulative = 3.55539e-19
ExecutionTime = 0.210688 s  ClockTime = 0 s

Time = 0.32s

Courant Number mean: 0.0221377 max: 0.168753
smoothSolver:  Solving for Ux, Initial residual = 0.00312625, Final residual = 9.85861e-07, No Iterations 2
smoothSolver:  Solving for Uy, Initial residual = 0.00365366, Final residual = 1.26219e-06, No Iterations 2
DICPCG:  Solving for p, Initial residual = 0.00181196, Final residual = 6.75953e-05, No Iterations 22
time step continuity errors : sum local = 1.20212e-08, global = -1.93875e-20, cumulative = 3.36151e-19
DICPCG:  Solving for p, Initial residual = 0.000381415, Final residual = 9.65802e-07, No Iterations 50
time step continuity errors : sum local = 1.57232e-10, global = 7.97216e-20, cumulative = 4.15873e-19
ExecutionTime = 0.213736 s  ClockTime = 0 s

Time = 0.325s

Courant Number mean: 0.0222685 max: 0.168959
smoothSolver:  Solving for Ux, Initial residual = 0.00306955, Final residual = 9.68595e-07, No Iterations 2
smoothSolver:  Solving for Uy, Initial residual = 0.00359269, Final residual = 1.24088e-06, No Iterations 2
DICPCG:  Solving for p, Initial residual = 0.00178825, Final residual = 6.61806e-05, No Iterations 22
time step continuity errors : sum local = 1.17758e-08, global = -3.53318e-20, cumulative = 3.80541e-19
DICPCG:  Solving for p, Initial residual = 0.000375903, Final residual = 9.67447e-07, No Iterations 50
time step continuity errors : sum local = 1.57784e-10, global = 4.95349e-20, cumulative = 4.30076e-19
ExecutionTime = 0.216913 s  ClockTime = 0 s

Time = 0.33s

Courant Number mean: 0.0223976 max: 0.16916
smoothSolver:  Solving for Ux, Initial residual = 0.00301451, Final residual = 9.51862e-07, No Iterations 2
smoothSolver:  Solving for Uy, Initial residual = 0.00353355, Final residual = 1.2202e-06, No Iterations 2
DICPCG:  Solving for p, Initial residual = 0.00174118, Final residual = 6.51952e-05, No Iterations 22
time step continuity errors : sum local = 1.16102e-08, global = -3.02208e-20, cumulative = 3.99855e-19
DICPCG:  Solving for p, Initial residual = 0.000370552, Final residual = 9.60247e-07, No Iterations 50
time step continuity errors : sum local = 1.56824e-10, global = 1.04184e-20, cumulative = 4.10274e-19
ExecutionTime = 0.220064 s  ClockTime = 0 s

Time = 0.335s

Courant Number mean: 0.0225253 max: 0.169357
smoothSolver:  Solving for Ux, Initial residual = 0.00296105, Final residual = 9.3579e-07, No Iterations 2
smoothSolver:  Solving for Uy, Initial residual = 0.00347639, Final residual = 1.2002e-06, No Iterations 2
DICPCG:  Solving for p, Initial residual = 0.00171638, Final residual = 6.42775e-05, No Iterations 22
time step continuity errors : sum local = 1.14524e-08, global = -5.10186e-20, cumulative = 3.59255e-19
DICPCG:  Solving for p, Initial residual = 0.000365541, Final residual = 9.59127e-07, No Iterations 50
time step continuity errors : sum local = 1.56884e-10, global = 2.42707e-20, cumulative = 3.83526e-19
ExecutionTime = 0.223149 s  ClockTime = 0 s

Time = 0.34s

Courant Number mean: 0.0226511 max: 0.169548
smoothSolver:  Solving for Ux, Initial residual = 0.00290938, Final residual = 9.20209e-07, No Iterations 2
smoothSolver:  Solving for Uy, Initial residual = 0.00342108, Final residual = 1.18086e-06, No Iterations 2
DICPCG:  Solving for p, Initial residual = 0.00169366, Final residual = 6.32632e-05, No Iterations 22
time step continuity errors : sum local = 1.12739e-08, global = -2.87204e-20, cumulative = 3.54805e-19
DICPCG:  Solving for p, Initial residual = 0.000360586, Final residual = 9.57811e-07, No Iterations 50
time step continuity errors : sum local = 1.56893e-10, global = -3.69393e-20, cumulative = 3.17866e-19
ExecutionTime = 0.226298 s  ClockTime = 0 s

Time = 0.345s

Courant Number mean: 0.0227752 max: 0.169735
smoothSolver:  Solving for Ux, Initial residual = 0.00285932, Final residual = 9.05032e-07, No Iterations 2
smoothSolver:  Solving for Uy, Initial residual = 0.00336743, Final residual = 1.1621e-06, No Iterations 2
DICPCG:  Solving for p, Initial residual = 0.0016775, Final residual = 6.24102e-05, No Iterations 22
time step continuity errors : sum local = 1.11306e-08, global = 4.66067e-20, cumulative = 3.64473e-19
DICPCG:  Solving for p, Initial residual = 0.000355879, Final residual = 9.54749e-07, No Iterations 50
time step continuity errors : sum local = 1.56619e-10, global = -2.7104e-20, cumulative = 3.37369e-19
ExecutionTime = 0.229463 s  ClockTime = 0 s

Time = 0.35s

Courant Number mean: 0.0228976 max: 0.169918
smoothSolver:  Solving for Ux, Initial residual = 0.00281057, Final residual = 8.90247e-07, No Iterations 2
smoothSolver:  Solving for Uy, Initial residual = 0.00331543, Final residual = 1.14392e-06, No Iterations 2
DICPCG:  Solving for p, Initial residual = 0.00165676, Final residual = 8.27964e-05, No Iterations 21
time step continuity errors : sum local = 1.44397e-08, global = 7.70829e-21, cumulative = 3.45077e-19
DICPCG:  Solving for p, Initial residual = 0.000367353, Final residual = 9.44835e-07, No Iterations 50
time step continuity errors : sum local = 1.55328e-10, global = 2.70405e-21, cumulative = 3.47781e-19
ExecutionTime = 0.232567 s  ClockTime = 0 s

Time = 0.355s

Courant Number mean: 0.0230184 max: 0.170099
smoothSolver:  Solving for Ux, Initial residual = 0.00276306, Final residual = 8.75866e-07, No Iterations 2
smoothSolver:  Solving for Uy, Initial residual = 0.00326493, Final residual = 1.12627e-06, No Iterations 2
DICPCG:  Solving for p, Initial residual = 0.00163539, Final residual = 8.17606e-05, No Iterations 21
time step continuity errors : sum local = 1.42669e-08, global = -4.90322e-20, cumulative = 2.98749e-19
DICPCG:  Solving for p, Initial residual = 0.00036411, Final residual = 9.27192e-07, No Iterations 50
time step continuity errors : sum local = 1.52641e-10, global = 2.04631e-20, cumulative = 3.19212e-19
ExecutionTime = 0.23566 s  ClockTime = 0 s

Time = 0.36s

Courant Number mean: 0.0231379 max: 0.170276
smoothSolver:  Solving for Ux, Initial residual = 0.00271697, Final residual = 8.62086e-07, No Iterations 2
smoothSolver:  Solving for Uy, Initial residual = 0.00321588, Final residual = 1.10911e-06, No Iterations 2
DICPCG:  Solving for p, Initial residual = 0.00161776, Final residual = 8.08707e-05, No Iterations 21
time step continuity errors : sum local = 1.4112e-08, global = 4.27734e-20, cumulative = 3.61985e-19
DICPCG:  Solving for p, Initial residual = 0.000357585, Final residual = 9.54822e-07, No Iterations 50
time step continuity errors : sum local = 1.57394e-10, global = -7.03166e-21, cumulative = 3.54954e-19
ExecutionTime = 0.238718 s  ClockTime = 0 s

Time = 0.365s

Courant Number mean: 0.0232557 max: 0.170449
smoothSolver:  Solving for Ux, Initial residual = 0.00267268, Final residual = 8.48745e-07, No Iterations 2
smoothSolver:  Solving for Uy, Initial residual = 0.0031685, Final residual = 1.09254e-06, No Iterations 2
DICPCG:  Solving for p, Initial residual = 0.00158479, Final residual = 7.8904e-05, No Iterations 21
time step continuity errors : sum local = 1.37902e-08, global = -1.60376e-20, cumulative = 3.38916e-19
DICPCG:  Solving for p, Initial residual = 0.000354663, Final residual = 9.42191e-07, No Iterations 50
time step continuity errors : sum local = 1.55512e-10, global = 2.08701e-20, cumulative = 3.59786e-19
ExecutionTime = 0.241783 s  ClockTime = 0 s

Time = 0.37s

Courant Number mean: 0.0233719 max: 0.170618
smoothSolver:  Solving for Ux, Initial residual = 0.00262995, Final residual = 8.35813e-07, No Iterations 2
smoothSolver:  Solving for Uy, Initial residual = 0.00312224, Final residual = 1.07636e-06, No Iterations 2
DICPCG:  Solving for p, Initial residual = 0.00156166, Final residual = 7.75763e-05, No Iterations 21
time step continuity errors : sum local = 1.35689e-08, global = -5.74042e-20, cumulative = 3.02382e-19
DICPCG:  Solving for p, Initial residual = 0.000350006, Final residual = 9.41898e-07, No Iterations 50
time step continuity errors : sum local = 1.55651e-10, global = -2.02114e-20, cumulative = 2.82171e-19
ExecutionTime = 0.244832 s  ClockTime = 0 s

Time = 0.375s

Courant Number mean: 0.0234864 max: 0.170783
smoothSolver:  Solving for Ux, Initial residual = 0.00258856, Final residual = 8.23239e-07, No Iterations 2
smoothSolver:  Solving for Uy, Initial residual = 0.00307724, Final residual = 1.06063e-06, No Iterations 2
DICPCG:  Solving for p, Initial residual = 0.00155091, Final residual = 7.62838e-05, No Iterations 21
time step continuity errors : sum local = 1.33531e-08, global = 4.57936e-20, cumulative = 3.27964e-19
DICPCG:  Solving for p, Initial residual = 0.000346253, Final residual = 9.43644e-07, No Iterations 50
time step continuity errors : sum local = 1.56124e-10, global = -9.15761e-21, cumulative = 3.18807e-19
ExecutionTime = 0.247957 s  ClockTime = 0 s

Time = 0.38s

Courant Number mean: 0.0235996 max: 0.170945
smoothSolver:  Solving for Ux, Initial residual = 0.00254838, Final residual = 8.11014e-07, No Iterations 2
smoothSolver:  Solving for Uy, Initial residual = 0.00303347, Final residual = 1.04531e-06, No Iterations 2
DICPCG:  Solving for p, Initial residual = 0.00153054, Final residual = 7.54564e-05, No Iterations 21
time step continuity errors : sum local = 1.32152e-08, global = 6.50189e-20, cumulative = 3.83826e-19
DICPCG:  Solving for p, Initial residual = 0.000340538, Final residual = 9.40045e-07, No Iterations 50
time step continuity errors : sum local = 1.557e-10, global = 4.37323e-20, cumulative = 4.27558e-19
ExecutionTime = 0.250976 s  ClockTime = 0 s

Time = 0.385s

Courant Number mean: 0.0237113 max: 0.171104
smoothSolver:  Solving for Ux, Initial residual = 0.00250947, Final residual = 7.9913e-07, No Iterations 2
smoothSolver:  Solving for Uy, Initial residual = 0.00299099, Final residual = 1.03049e-06, No Iterations 2
DICPCG:  Solving for p, Initial residual = 0.00152418, Final residual = 7.47015e-05, No Iterations 21
time step continuity errors : sum local = 1.30899e-08, global = 4.54507e-20, cumulative = 4.73008e-19
DICPCG:  Solving for p, Initial residual = 0.000336567, Final residual = 9.35241e-07, No Iterations 50
time step continuity errors : sum local = 1.55069e-10, global = 1.20002e-19, cumulative = 5.9301e-19
ExecutionTime = 0.253978 s  ClockTime = 0 s

Time = 0.39s

Courant Number mean: 0.0238216 max: 0.17126
smoothSolver:  Solving for Ux, Initial residual = 0.00247165, Final residual = 7.8756e-07, No Iterations 2
smoothSolver:  Solving for Uy, Initial residual = 0.00294962, Final residual = 1.01607e-06, No Iterations 2
DICPCG:  Solving for p, Initial residual = 0.00154705, Final residual = 7.43331e-05, No Iterations 21
time step continuity errors : sum local = 1.30243e-08, global = -1.95733e-20, cumulative = 5.73437e-19
DICPCG:  Solving for p, Initial residual = 0.000331943, Final residual = 9.19641e-07, No Iterations 50
time step continuity errors : sum local = 1.52658e-10, global = 1.85124e-20, cumulative = 5.91949e-19
ExecutionTime = 0.256994 s  ClockTime = 0 s

Time = 0.395s

Courant Number mean: 0.0239309 max: 0.171412
smoothSolver:  Solving for Ux, Initial residual = 0.00243487, Final residual = 7.76272e-07, No Iterations 2
smoothSolver:  Solving for Uy, Initial residual = 0.00290902, Final residual = 1.00192e-06, No Iterations 2
DICPCG:  Solving for p, Initial residual = 0.00151359, Final residual = 7.31643e-05, No Iterations 21
time step continuity errors : sum local = 1.28175e-08, global = -9.98417e-21, cumulative = 5.81965e-19
DICPCG:  Solving for p, Initial residual = 0.000329446, Final residual = 9.85192e-07, No Iterations 50
time step continuity errors : sum local = 1.63715e-10, global = 4.16738e-20, cumulative = 6.23639e-19
ExecutionTime = 0.260056 s  ClockTime = 0 s

Time = 0.4s

Courant Number mean: 0.0240387 max: 0.171561
smoothSolver:  Solving for Ux, Initial residual = 0.00239906, Final residual = 7.65317e-07, No Iterations 2
smoothSolver:  Solving for Uy, Initial residual = 0.00287006, Final residual = 9.883e-07, No Iterations 2
DICPCG:  Solving for p, Initial residual = 0.00144982, Final residual = 7.06709e-05, No Iterations 21
time step continuity errors : sum local = 1.24141e-08, global = -3.2813e-20, cumulative = 5.90826e-19
DICPCG:  Solving for p, Initial residual = 0.000324925, Final residual = 9.47967e-07, No Iterations 50
time step continuity errors : sum local = 1.57667e-10, global = -4.47003e-20, cumulative = 5.46126e-19
ExecutionTime = 0.263194 s  ClockTime = 0 s

Time = 0.405s

Courant Number mean: 0.0241452 max: 0.171708
smoothSolver:  Solving for Ux, Initial residual = 0.00236421, Final residual = 7.54587e-07, No Iterations 2
smoothSolver:  Solving for Uy, Initial residual = 0.00283184, Final residual = 9.74942e-07, No Iterations 2
DICPCG:  Solving for p, Initial residual = 0.0014348, Final residual = 6.95847e-05, No Iterations 21
time step continuity errors : sum local = 1.22311e-08, global = 8.38999e-21, cumulative = 5.54516e-19
DICPCG:  Solving for p, Initial residual = 0.000320966, Final residual = 9.48005e-07, No Iterations 50
time step continuity errors : sum local = 1.57822e-10, global = 2.87414e-20, cumulative = 5.83257e-19
ExecutionTime = 0.266313 s  ClockTime = 0 s

Time = 0.41s

Courant Number mean: 0.0242502 max: 0.171851
smoothSolver:  Solving for Ux, Initial residual = 0.00233034, Final residual = 7.44149e-07, No Iterations 2
smoothSolver:  Solving for Uy, Initial residual = 0.00279465, Final residual = 9.61914e-07, No Iterations 2
DICPCG:  Solving for p, Initial residual = 0.00142192, Final residual = 6.85434e-05, No Iterations 21
time step continuity errors : sum local = 1.20562e-08, global = 2.40841e-20, cumulative = 6.07341e-19
DICPCG:  Solving for p, Initial residual = 0.000317174, Final residual = 9.4895e-07, No Iterations 50
time step continuity errors : sum local = 1.58123e-10, global = -5.84844e-20, cumulative = 5.48857e-19
ExecutionTime = 0.269464 s  ClockTime = 0 s

Time = 0.415s

Courant Number mean: 0.0243539 max: 0.171992
smoothSolver:  Solving for Ux, Initial residual = 0.00229736, Final residual = 7.33937e-07, No Iterations 2
smoothSolver:  Solving for Uy, Initial residual = 0.00275838, Final residual = 9.49214e-07, No Iterations 2
DICPCG:  Solving for p, Initial residual = 0.00141545, Final residual = 6.75962e-05, No Iterations 21
time step continuity errors : sum local = 1.18959e-08, global = 1.64276e-20, cumulative = 5.65284e-19
DICPCG:  Solving for p, Initial residual = 0.000313503, Final residual = 9.50198e-07, No Iterations 50
time step continuity errors : sum local = 1.58475e-10, global = -3.96067e-20, cumulative = 5.25678e-19
ExecutionTime = 0.272563 s  ClockTime = 0 s

Time = 0.42s

Courant Number mean: 0.0244563 max: 0.17213
smoothSolver:  Solving for Ux, Initial residual = 0.00226523, Final residual = 7.23978e-07, No Iterations 2
smoothSolver:  Solving for Uy, Initial residual = 0.00272302, Final residual = 9.36838e-07, No Iterations 2
DICPCG:  Solving for p, Initial residual = 0.001454, Final residual = 6.68979e-05, No Iterations 21
time step continuity errors : sum local = 1.17737e-08, global = 8.38451e-21, cumulative = 5.34062e-19
DICPCG:  Solving for p, Initial residual = 0.000312363, Final residual = 9.65231e-07, No Iterations 50
time step continuity errors : sum local = 1.61126e-10, global = 5.24087e-20, cumulative = 5.86471e-19
ExecutionTime = 0.275664 s  ClockTime = 0 s

Time = 0.425s

Courant Number mean: 0.0245575 max: 0.172265
smoothSolver:  Solving for Ux, Initial residual = 0.00223382, Final residual = 7.14243e-07, No Iterations 2
smoothSolver:  Solving for Uy, Initial residual = 0.00268859, Final residual = 9.24774e-07, No Iterations 2
DICPCG:  Solving for p, Initial residual = 0.00140116, Final residual = 6.57196e-05, No Iterations 21
time step continuity errors : sum local = 1.15796e-08, global = 1.43577e-20, cumulative = 6.00829e-19
DICPCG:  Solving for p, Initial residual = 0.000306573, Final residual = 9.49295e-07, No Iterations 50
time step continuity errors : sum local = 1.58591e-10, global = -2.43965e-20, cumulative = 5.76432e-19
ExecutionTime = 0.278757 s  ClockTime = 0 s

Time = 0.43s

Courant Number mean: 0.024658 max: 0.172398
smoothSolver:  Solving for Ux, Initial residual = 0.00220324, Final residual = 7.04723e-07, No Iterations 2
smoothSolver:  Solving for Uy, Initial residual = 0.0026549, Final residual = 9.12996e-07, No Iterations 2
DICPCG:  Solving for p, Initial residual = 0.00147322, Final residual = 6.2986e-05, No Iterations 21
time step continuity errors : sum local = 1.11327e-08, global = 1.51466e-20, cumulative = 5.91579e-19
DICPCG:  Solving for p, Initial residual = 0.000302251, Final residual = 9.05911e-07, No Iterations 50
time step continuity errors : sum local = 1.51432e-10, global = 3.1046e-20, cumulative = 6.22625e-19
ExecutionTime = 0.281869 s  ClockTime = 0 s

Time = 0.435s

Courant Number mean: 0.0247572 max: 0.172529
smoothSolver:  Solving for Ux, Initial residual = 0.00217366, Final residual = 6.95479e-07, No Iterations 2
smoothSolver:  Solving for Uy, Initial residual = 0.00262176, Final residual = 9.0146e-07, No Iterations 2
DICPCG:  Solving for p, Initial residual = 0.00134888, Final residual = 6.35207e-05, No Iterations 21
time step continuity errors : sum local = 1.12093e-08, global = -2.22493e-20, cumulative = 6.00375e-19
DICPCG:  Solving for p, Initial residual = 0.000298811, Final residual = 9.48157e-07, No Iterations 50
time step continuity errors : sum local = 1.58642e-10, global = 6.58618e-20, cumulative = 6.66237e-19
ExecutionTime = 0.284991 s  ClockTime = 0 s

Time = 0.44s

Courant Number mean: 0.0248551 max: 0.172657
smoothSolver:  Solving for Ux, Initial residual = 0.00214458, Final residual = 6.86413e-07, No Iterations 2
smoothSolver:  Solving for Uy, Initial residual = 0.00258959, Final residual = 8.90236e-07, No Iterations 2
DICPCG:  Solving for p, Initial residual = 0.00140185, Final residual = 6.40592e-05, No Iterations 21
time step continuity errors : sum local = 1.1304e-08, global = -1.71765e-20, cumulative = 6.49061e-19
DICPCG:  Solving for p, Initial residual = 0.000293828, Final residual = 9.08016e-07, No Iterations 50
time step continuity errors : sum local = 1.52054e-10, global = 4.54495e-20, cumulative = 6.9451e-19
ExecutionTime = 0.288048 s  ClockTime = 0 s

Time = 0.445s

Courant Number mean: 0.0249523 max: 0.172783
smoothSolver:  Solving for Ux, Initial residual = 0.00211613, Final residual = 6.77579e-07, No Iterations 2
smoothSolver:  Solving for Uy, Initial residual = 0.00255802, Final residual = 8.79223e-07, No Iterations 2
DICPCG:  Solving for p, Initial residual = 0.00138856, Final residual = 6.22381e-05, No Iterations 21
time step continuity errors : sum local = 1.09781e-08, global = 5.70381e-20, cumulative = 7.51548e-19
DICPCG:  Solving for p, Initial residual = 0.000295101, Final residual = 9.9466e-07, No Iterations 50
time step continuity errors : sum local = 1.66668e-10, global = 4.92731e-20, cumulative = 8.00821e-19
ExecutionTime = 0.291174 s  ClockTime = 0 s

Time = 0.45s

Courant Number mean: 0.0250485 max: 0.172907
smoothSolver:  Solving for Ux, Initial residual = 0.0020884, Final residual = 6.68972e-07, No Iterations 2
smoothSolver:  Solving for Uy, Initial residual = 0.00252762, Final residual = 8.68607e-07, No Iterations 2
DICPCG:  Solving for p, Initial residual = 0.00130069, Final residual = 6.05423e-05, No Iterations 21
time step continuity errors : sum local = 1.07069e-08, global = -1.95401e-21, cumulative = 7.98867e-19
DICPCG:  Solving for p, Initial residual = 0.000289909, Final residual = 9.57007e-07, No Iterations 50
time step continuity errors : sum local = 1.60477e-10, global = 1.69713e-20, cumulative = 8.15839e-19
ExecutionTime = 0.294288 s  ClockTime = 0 s

Time = 0.455s

Courant Number mean: 0.0251435 max: 0.173028
smoothSolver:  Solving for Ux, Initial residual = 0.00206127, Final residual = 6.60574e-07, No Iterations 2
smoothSolver:  Solving for Uy, Initial residual = 0.00249763, Final residual = 8.58156e-07, No Iterations 2
DICPCG:  Solving for p, Initial residual = 0.0012876, Final residual = 5.98627e-05, No Iterations 21
time step continuity errors : sum local = 1.05919e-08, global = 8.22584e-20, cumulative = 8.98097e-19
DICPCG:  Solving for p, Initial residual = 0.000286739, Final residual = 9.52335e-07, No Iterations 50
time step continuity errors : sum local = 1.59806e-10, global = 4.01252e-20, cumulative = 9.38222e-19
ExecutionTime = 0.297546 s  ClockTime = 0 s

Time = 0.46s

Courant Number mean: 0.0252373 max: 0.173147
smoothSolver:  Solving for Ux, Initial residual = 0.00203465, Final residual = 6.52393e-07, No Iterations 2
smoothSolver:  Solving for Uy, Initial residual = 0.00246826, Final residual = 8.4793e-07, No Iterations 2
DICPCG:  Solving for p, Initial residual = 0.00127443, Final residual = 5.90946e-05, No Iterations 21
time step continuity errors : sum local = 1.0462e-08, global = -1.11417e-19, cumulative = 8.26805e-19
DICPCG:  Solving for p, Initial residual = 0.000283861, Final residual = 9.5076e-07, No Iterations 50
time step continuity errors : sum local = 1.59651e-10, global = -3.05183e-20, cumulative = 7.96287e-19
ExecutionTime = 0.300662 s  ClockTime = 0 s

Time = 0.465s

Courant Number mean: 0.0253301 max: 0.173265
smoothSolver:  Solving for Ux, Initial residual = 0.00200854, Final residual = 6.44425e-07, No Iterations 2
smoothSolver:  Solving for Uy, Initial residual = 0.0024396, Final residual = 8.37926e-07, No Iterations 2
DICPCG:  Solving for p, Initial residual = 0.00126285, Final residual = 5.83188e-05, No Iterations 21
time step continuity errors : sum local = 1.033e-08, global = 6.48073e-20, cumulative = 8.61094e-19
DICPCG:  Solving for p, Initial residual = 0.000281049, Final residual = 9.4979e-07, No Iterations 50
time step continuity errors : sum local = 1.59594e-10, global = 3.32399e-20, cumulative = 8.94334e-19
ExecutionTime = 0.303703 s  ClockTime = 0 s

Time = 0.47s

Courant Number mean: 0.0254217 max: 0.17338
smoothSolver:  Solving for Ux, Initial residual = 0.001983, Final residual = 6.36651e-07, No Iterations 2
smoothSolver:  Solving for Uy, Initial residual = 0.0024116, Final residual = 8.28135e-07, No Iterations 2
DICPCG:  Solving for p, Initial residual = 0.0012504, Final residual = 5.75838e-05, No Iterations 21
time step continuity errors : sum local = 1.02059e-08, global = -1.75715e-20, cumulative = 8.76763e-19
DICPCG:  Solving for p, Initial residual = 0.000278314, Final residual = 9.48911e-07, No Iterations 50
time step continuity errors : sum local = 1.5955e-10, global = 2.72019e-20, cumulative = 9.03965e-19
ExecutionTime = 0.306813 s  ClockTime = 0 s

Time = 0.475s

Courant Number mean: 0.0255126 max: 0.173494
smoothSolver:  Solving for Ux, Initial residual = 0.00195799, Final residual = 6.29032e-07, No Iterations 2
smoothSolver:  Solving for Uy, Initial residual = 0.0023842, Final residual = 8.18556e-07, No Iterations 2
DICPCG:  Solving for p, Initial residual = 0.00124623, Final residual = 5.70087e-05, No Iterations 21
time step continuity errors : sum local = 1.01085e-08, global = -6.05158e-20, cumulative = 8.43449e-19
DICPCG:  Solving for p, Initial residual = 0.000275711, Final residual = 9.43419e-07, No Iterations 50
time step continuity errors : sum local = 1.58736e-10, global = 9.66431e-21, cumulative = 8.53113e-19
ExecutionTime = 0.309938 s  ClockTime = 0 s

Time = 0.48s

Courant Number mean: 0.0256034 max: 0.173605
smoothSolver:  Solving for Ux, Initial residual = 0.00193339, Final residual = 6.21533e-07, No Iterations 2
smoothSolver:  Solving for Uy, Initial residual = 0.00235736, Final residual = 8.09181e-07, No Iterations 2
DICPCG:  Solving for p, Initial residual = 0.00123145, Final residual = 5.61848e-05, No Iterations 21
time step continuity errors : sum local = 9.9648e-09, global = -3.93105e-20, cumulative = 8.13803e-19
DICPCG:  Solving for p, Initial residual = 0.000272866, Final residual = 9.48786e-07, No Iterations 50
time step continuity errors : sum local = 1.59729e-10, global = 1.45663e-20, cumulative = 8.28369e-19
ExecutionTime = 0.313009 s  ClockTime = 0 s

Time = 0.485s

Courant Number mean: 0.0256938 max: 0.173715
smoothSolver:  Solving for Ux, Initial residual = 0.00190917, Final residual = 6.14142e-07, No Iterations 2
smoothSolver:  Solving for Uy, Initial residual = 0.00233113, Final residual = 8.00035e-07, No Iterations 2
DICPCG:  Solving for p, Initial residual = 0.00121443, Final residual = 5.53406e-05, No Iterations 21
time step continuity errors : sum local = 9.82372e-09, global = 9.80747e-21, cumulative = 8.38176e-19
DICPCG:  Solving for p, Initial residual = 0.00027037, Final residual = 9.45569e-07, No Iterations 50
time step continuity errors : sum local = 1.59291e-10, global = -1.12486e-20, cumulative = 8.26928e-19
ExecutionTime = 0.31612 s  ClockTime = 0 s

Time = 0.49s

Courant Number mean: 0.0257835 max: 0.173823
smoothSolver:  Solving for Ux, Initial residual = 0.00188533, Final residual = 6.06852e-07, No Iterations 2
smoothSolver:  Solving for Uy, Initial residual = 0.00230543, Final residual = 7.91071e-07, No Iterations 2
DICPCG:  Solving for p, Initial residual = 0.00120458, Final residual = 5.46545e-05, No Iterations 21
time step continuity errors : sum local = 9.70726e-09, global = 2.18396e-21, cumulative = 8.29112e-19
DICPCG:  Solving for p, Initial residual = 0.000267968, Final residual = 9.43654e-07, No Iterations 50
time step continuity errors : sum local = 1.59065e-10, global = 3.00828e-20, cumulative = 8.59195e-19
ExecutionTime = 0.319205 s  ClockTime = 0 s

Time = 0.495s

Courant Number mean: 0.0258727 max: 0.173929
smoothSolver:  Solving for Ux, Initial residual = 0.00186233, Final residual = 5.99668e-07, No Iterations 2
smoothSolver:  Solving for Uy, Initial residual = 0.00228025, Final residual = 7.82296e-07, No Iterations 2
DICPCG:  Solving for p, Initial residual = 0.00121582, Final residual = 5.48216e-05, No Iterations 21
time step continuity errors : sum local = 9.73339e-09, global = -2.60675e-20, cumulative = 8.33127e-19
DICPCG:  Solving for p, Initial residual = 0.000265184, Final residual = 9.37257e-07, No Iterations 50
time step continuity errors : sum local = 1.58085e-10, global = 3.97434e-22, cumulative = 8.33525e-19
ExecutionTime = 0.322324 s  ClockTime = 0 s

Time = 0.5s

Courant Number mean: 0.0259611 max: 0.174033
smoothSolver:  Solving for Ux, Initial residual = 0.00183991, Final residual = 5.92672e-07, No Iterations 2
smoothSolver:  Solving for Uy, Initial residual = 0.00225563, Final residual = 7.73726e-07, No Iterations 2
DICPCG:  Solving for p, Initial residual = 0.00122086, Final residual = 5.41946e-05, No Iterations 21
time step continuity errors : sum local = 9.62134e-09, global = 1.15314e-20, cumulative = 8.45056e-19
DICPCG:  Solving for p, Initial residual = 0.000262641, Final residual = 9.28877e-07, No Iterations 50
time step continuity errors : sum local = 1.56781e-10, global = -4.26808e-20, cumulative = 8.02375e-19
ExecutionTime = 0.329154 s  ClockTime = 0 s

Time = 0.505s

Courant Number mean: 0.026049 max: 0.174136
smoothSolver:  Solving for Ux, Initial residual = 0.00181802, Final residual = 5.85845e-07, No Iterations 2
smoothSolver:  Solving for Uy, Initial residual = 0.00223137, Final residual = 7.65277e-07, No Iterations 2
DICPCG:  Solving for p, Initial residual = 0.0012282, Final residual = 6.08414e-05, No Iterations 20
time step continuity errors : sum local = 1.06971e-08, global = -5.78984e-20, cumulative = 7.44477e-19
DICPCG:  Solving for p, Initial residual = 0.000260964, Final residual = 9.37819e-07, No Iterations 50
time step continuity errors : sum local = 1.58345e-10, global = 3.27599e-20, cumulative = 7.77237e-19
ExecutionTime = 0.332219 s  ClockTime = 0 s

Time = 0.51s

Courant Number mean: 0.0261362 max: 0.174237
smoothSolver:  Solving for Ux, Initial residual = 0.00179657, Final residual = 5.79151e-07, No Iterations 2
smoothSolver:  Solving for Uy, Initial residual = 0.00220777, Final residual = 7.57045e-07, No Iterations 2
DICPCG:  Solving for p, Initial residual = 0.00131507, Final residual = 6.54351e-05, No Iterations 19
time step continuity errors : sum local = 1.13818e-08, global = -1.32419e-20, cumulative = 7.63995e-19
DICPCG:  Solving for p, Initial residual = 0.000262207, Final residual = 9.35712e-07, No Iterations 50
time step continuity errors : sum local = 1.58146e-10, global = 2.82895e-20, cumulative = 7.92284e-19
ExecutionTime = 0.335286 s  ClockTime = 0 s

Time = 0.515s

Courant Number mean: 0.0262226 max: 0.174337
smoothSolver:  Solving for Ux, Initial residual = 0.00177543, Final residual = 5.72563e-07, No Iterations 2
smoothSolver:  Solving for Uy, Initial residual = 0.00218465, Final residual = 7.4897e-07, No Iterations 2
DICPCG:  Solving for p, Initial residual = 0.00129839, Final residual = 5.85472e-05, No Iterations 20
time step continuity errors : sum local = 1.03012e-08, global = 4.58503e-20, cumulative = 8.38135e-19
DICPCG:  Solving for p, Initial residual = 0.000257615, Final residual = 8.66577e-07, No Iterations 50
time step continuity errors : sum local = 1.46451e-10, global = -1.15207e-19, cumulative = 7.22928e-19
ExecutionTime = 0.338359 s  ClockTime = 0 s

Time = 0.52s

Courant Number mean: 0.0263084 max: 0.174435
smoothSolver:  Solving for Ux, Initial residual = 0.00175545, Final residual = 5.66274e-07, No Iterations 2
smoothSolver:  Solving for Uy, Initial residual = 0.0021617, Final residual = 7.41003e-07, No Iterations 2
DICPCG:  Solving for p, Initial residual = 0.00120554, Final residual = 5.91665e-05, No Iterations 20
time step continuity errors : sum local = 1.0416e-08, global = -1.32341e-20, cumulative = 7.09693e-19
DICPCG:  Solving for p, Initial residual = 0.00025581, Final residual = 8.89206e-07, No Iterations 50
time step continuity errors : sum local = 1.50364e-10, global = 1.69397e-20, cumulative = 7.26633e-19
ExecutionTime = 0.341392 s  ClockTime = 0 s

Time = 0.525s

Courant Number mean: 0.0263937 max: 0.174531
smoothSolver:  Solving for Ux, Initial residual = 0.00173565, Final residual = 5.60043e-07, No Iterations 2
smoothSolver:  Solving for Uy, Initial residual = 0.00213925, Final residual = 7.33188e-07, No Iterations 2
DICPCG:  Solving for p, Initial residual = 0.00131968, Final residual = 6.51504e-05, No Iterations 18
time step continuity errors : sum local = 1.12716e-08, global = -2.35375e-21, cumulative = 7.24279e-19
DICPCG:  Solving for p, Initial residual = 0.000256025, Final residual = 8.6025e-07, No Iterations 50
time step continuity errors : sum local = 1.45561e-10, global = 2.43742e-20, cumulative = 7.48654e-19
ExecutionTime = 0.34431 s  ClockTime = 0 s

Time = 0.53s

Courant Number mean: 0.0264783 max: 0.174626
smoothSolver:  Solving for Ux, Initial residual = 0.00171639, Final residual = 5.53952e-07, No Iterations 2
smoothSolver:  Solving for Uy, Initial residual = 0.00211734, Final residual = 7.25566e-07, No Iterations 2
DICPCG:  Solving for p, Initial residual = 0.0011328, Final residual = 4.94613e-05, No Iterations 21
time step continuity errors : sum local = 8.79435e-09, global = 5.25621e-20, cumulative = 8.01216e-19
DICPCG:  Solving for p, Initial residual = 0.000247932, Final residual = 9.18249e-07, No Iterations 50
time step continuity errors : sum local = 1.55508e-10, global = 6.19929e-20, cumulative = 8.63209e-19
ExecutionTime = 0.347492 s  ClockTime = 0 s

Time = 0.535s

Courant Number mean: 0.0265623 max: 0.17472
smoothSolver:  Solving for Ux, Initial residual = 0.00169738, Final residual = 5.47941e-07, No Iterations 2
smoothSolver:  Solving for Uy, Initial residual = 0.00209585, Final residual = 7.18035e-07, No Iterations 2
DICPCG:  Solving for p, Initial residual = 0.00111923, Final residual = 4.88166e-05, No Iterations 21
time step continuity errors : sum local = 8.7138e-09, global = 4.32316e-20, cumulative = 9.0644e-19
DICPCG:  Solving for p, Initial residual = 0.000247024, Final residual = 9.10344e-07, No Iterations 50
time step continuity errors : sum local = 1.54251e-10, global = 1.46635e-20, cumulative = 9.21104e-19
ExecutionTime = 0.351305 s  ClockTime = 0 s

Time = 0.54s

Courant Number mean: 0.0266456 max: 0.174812
smoothSolver:  Solving for Ux, Initial residual = 0.0016787, Final residual = 5.42022e-07, No Iterations 2
smoothSolver:  Solving for Uy, Initial residual = 0.00207485, Final residual = 7.10693e-07, No Iterations 2
DICPCG:  Solving for p, Initial residual = 0.00109997, Final residual = 4.84315e-05, No Iterations 21
time step continuity errors : sum local = 8.64309e-09, global = 2.17404e-21, cumulative = 9.23278e-19
DICPCG:  Solving for p, Initial residual = 0.000244231, Final residual = 9.04554e-07, No Iterations 50
time step continuity errors : sum local = 1.53345e-10, global = -6.61059e-20, cumulative = 8.57172e-19
ExecutionTime = 0.354462 s  ClockTime = 0 s

Time = 0.545s

Courant Number mean: 0.0267281 max: 0.174903
smoothSolver:  Solving for Ux, Initial residual = 0.00166042, Final residual = 5.36215e-07, No Iterations 2
smoothSolver:  Solving for Uy, Initial residual = 0.00205418, Final residual = 7.03479e-07, No Iterations 2
[...]
DICPCG:  Solving for p, Initial residual = 8.95997e-06, Final residual = 7.6198e-07, No Iterations 34
time step continuity errors : sum local = 1.38959e-10, global = -2.53518e-20, cumulative = 7.67503e-19
ExecutionTime = 2.59207 s  ClockTime = 2 s

Time = 4.87s

Courant Number mean: 0.0441141 max: 0.184366
smoothSolver:  Solving for Ux, Initial residual = 6.97087e-05, Final residual = 1.28794e-06, No Iterations 1
smoothSolver:  Solving for Uy, Initial residual = 7.79688e-05, Final residual = 1.43687e-06, No Iterations 1
DICPCG:  Solving for p, Initial residual = 4.25081e-05, Final residual = 1.53801e-06, No Iterations 16
time step continuity errors : sum local = 3.1093e-10, global = -7.64116e-20, cumulative = 6.91092e-19
DICPCG:  Solving for p, Initial residual = 8.83961e-06, Final residual = 6.89267e-07, No Iterations 10
time step continuity errors : sum local = 1.51548e-10, global = -7.06106e-20, cumulative = 6.20481e-19
ExecutionTime = 2.59393 s  ClockTime = 2 s

Time = 4.875s

Courant Number mean: 0.0441185 max: 0.184367
smoothSolver:  Solving for Ux, Initial residual = 6.95316e-05, Final residual = 1.28469e-06, No Iterations 1
smoothSolver:  Solving for Uy, Initial residual = 7.77524e-05, Final residual = 1.43287e-06, No Iterations 1
DICPCG:  Solving for p, Initial residual = 4.19459e-05, Final residual = 2.08538e-06, No Iterations 16
time step continuity errors : sum local = 4.78978e-10, global = -3.507e-20, cumulative = 5.85411e-19
DICPCG:  Solving for p, Initial residual = 8.95136e-06, Final residual = 7.54386e-07, No Iterations 34
time step continuity errors : sum local = 1.37623e-10, global = 6.21068e-20, cumulative = 6.47518e-19
ExecutionTime = 2.59645 s  ClockTime = 2 s

Time = 4.88s

Courant Number mean: 0.0441229 max: 0.184368
smoothSolver:  Solving for Ux, Initial residual = 6.93366e-05, Final residual = 1.28107e-06, No Iterations 1
smoothSolver:  Solving for Uy, Initial residual = 7.75521e-05, Final residual = 1.42918e-06, No Iterations 1
DICPCG:  Solving for p, Initial residual = 4.23092e-05, Final residual = 1.52289e-06, No Iterations 16
time step continuity errors : sum local = 3.03923e-10, global = -5.80168e-20, cumulative = 5.89501e-19
DICPCG:  Solving for p, Initial residual = 8.78971e-06, Final residual = 6.70711e-07, No Iterations 10
time step continuity errors : sum local = 1.44338e-10, global = -8.01703e-20, cumulative = 5.09331e-19
ExecutionTime = 2.59854 s  ClockTime = 2 s

Time = 4.885s

Courant Number mean: 0.0441272 max: 0.184368
smoothSolver:  Solving for Ux, Initial residual = 6.91608e-05, Final residual = 1.27785e-06, No Iterations 1
smoothSolver:  Solving for Uy, Initial residual = 7.73361e-05, Final residual = 1.42519e-06, No Iterations 1
DICPCG:  Solving for p, Initial residual = 4.16691e-05, Final residual = 1.99305e-06, No Iterations 16
time step continuity errors : sum local = 4.5525e-10, global = 6.69379e-20, cumulative = 5.76269e-19
DICPCG:  Solving for p, Initial residual = 8.86923e-06, Final residual = 7.53336e-07, No Iterations 34
time step continuity errors : sum local = 1.37418e-10, global = -6.84409e-21, cumulative = 5.69425e-19
ExecutionTime = 2.60101 s  ClockTime = 2 s

Time = 4.89s

Courant Number mean: 0.0441316 max: 0.184369
smoothSolver:  Solving for Ux, Initial residual = 6.89691e-05, Final residual = 1.27429e-06, No Iterations 1
smoothSolver:  Solving for Uy, Initial residual = 7.71344e-05, Final residual = 1.42147e-06, No Iterations 1
DICPCG:  Solving for p, Initial residual = 4.19946e-05, Final residual = 1.51896e-06, No Iterations 16
time step continuity errors : sum local = 3.06788e-10, global = 4.6926e-20, cumulative = 6.16351e-19
DICPCG:  Solving for p, Initial residual = 8.7476e-06, Final residual = 6.81816e-07, No Iterations 10
time step continuity errors : sum local = 1.4961e-10, global = 2.81374e-20, cumulative = 6.44488e-19
ExecutionTime = 2.60288 s  ClockTime = 2 s

Time = 4.895s

Courant Number mean: 0.0441359 max: 0.18437
smoothSolver:  Solving for Ux, Initial residual = 6.87939e-05, Final residual = 1.27107e-06, No Iterations 1
smoothSolver:  Solving for Uy, Initial residual = 7.69203e-05, Final residual = 1.41751e-06, No Iterations 1
DICPCG:  Solving for p, Initial residual = 4.1432e-05, Final residual = 2.05254e-06, No Iterations 16
time step continuity errors : sum local = 4.71495e-10, global = -1.41307e-20, cumulative = 6.30357e-19
DICPCG:  Solving for p, Initial residual = 8.85415e-06, Final residual = 7.50814e-07, No Iterations 34
time step continuity errors : sum local = 1.36992e-10, global = 6.80596e-20, cumulative = 6.98417e-19
ExecutionTime = 2.60538 s  ClockTime = 2 s

Time = 4.9s

Courant Number mean: 0.0441402 max: 0.184371
smoothSolver:  Solving for Ux, Initial residual = 6.86015e-05, Final residual = 1.2675e-06, No Iterations 1
smoothSolver:  Solving for Uy, Initial residual = 7.67219e-05, Final residual = 1.41385e-06, No Iterations 1
DICPCG:  Solving for p, Initial residual = 4.17949e-05, Final residual = 1.50466e-06, No Iterations 16
time step continuity errors : sum local = 3.00734e-10, global = 6.82366e-20, cumulative = 7.66653e-19
DICPCG:  Solving for p, Initial residual = 8.69832e-06, Final residual = 6.66448e-07, No Iterations 10
time step continuity errors : sum local = 1.43701e-10, global = -7.05221e-20, cumulative = 6.96131e-19
ExecutionTime = 2.60719 s  ClockTime = 2 s

Time = 4.905s

Courant Number mean: 0.0441446 max: 0.184371
smoothSolver:  Solving for Ux, Initial residual = 6.84275e-05, Final residual = 1.26431e-06, No Iterations 1
smoothSolver:  Solving for Uy, Initial residual = 7.65082e-05, Final residual = 1.4099e-06, No Iterations 1
DICPCG:  Solving for p, Initial residual = 4.11662e-05, Final residual = 1.97562e-06, No Iterations 16
time step continuity errors : sum local = 4.51829e-10, global = -4.31929e-20, cumulative = 6.52938e-19
DICPCG:  Solving for p, Initial residual = 8.77899e-06, Final residual = 7.44199e-07, No Iterations 34
time step continuity errors : sum local = 1.35782e-10, global = 5.88076e-20, cumulative = 7.11746e-19
ExecutionTime = 2.60959 s  ClockTime = 2 s

Time = 4.91s

Courant Number mean: 0.0441489 max: 0.184372
smoothSolver:  Solving for Ux, Initial residual = 6.82377e-05, Final residual = 1.26078e-06, No Iterations 1
smoothSolver:  Solving for Uy, Initial residual = 7.63088e-05, Final residual = 1.40623e-06, No Iterations 1
DICPCG:  Solving for p, Initial residual = 4.1499e-05, Final residual = 1.49914e-06, No Iterations 16
time step continuity errors : sum local = 3.02587e-10, global = 1.43359e-20, cumulative = 7.26082e-19
DICPCG:  Solving for p, Initial residual = 8.65596e-06, Final residual = 6.74634e-07, No Iterations 10
time step continuity errors : sum local = 1.47789e-10, global = 5.07889e-20, cumulative = 7.76871e-19
ExecutionTime = 2.6114 s  ClockTime = 2 s

Time = 4.915s

Courant Number mean: 0.0441532 max: 0.184373
smoothSolver:  Solving for Ux, Initial residual = 6.80644e-05, Final residual = 1.2576e-06, No Iterations 1
smoothSolver:  Solving for Uy, Initial residual = 7.60969e-05, Final residual = 1.40231e-06, No Iterations 1
DICPCG:  Solving for p, Initial residual = 4.09393e-05, Final residual = 2.02147e-06, No Iterations 16
time step continuity errors : sum local = 4.64461e-10, global = 1.08246e-19, cumulative = 8.85116e-19
DICPCG:  Solving for p, Initial residual = 8.7583e-06, Final residual = 7.43227e-07, No Iterations 34
time step continuity errors : sum local = 1.35626e-10, global = -6.49271e-20, cumulative = 8.20189e-19
ExecutionTime = 2.61387 s  ClockTime = 2 s

Time = 4.92s

Courant Number mean: 0.0441574 max: 0.184373
smoothSolver:  Solving for Ux, Initial residual = 6.78741e-05, Final residual = 1.25406e-06, No Iterations 1
smoothSolver:  Solving for Uy, Initial residual = 7.59003e-05, Final residual = 1.39869e-06, No Iterations 1
DICPCG:  Solving for p, Initial residual = 4.13001e-05, Final residual = 1.48612e-06, No Iterations 16
time step continuity errors : sum local = 2.9742e-10, global = -5.54583e-20, cumulative = 7.64731e-19
DICPCG:  Solving for p, Initial residual = 8.60751e-06, Final residual = 6.61789e-07, No Iterations 10
time step continuity errors : sum local = 1.42927e-10, global = 1.1974e-19, cumulative = 8.84471e-19
ExecutionTime = 2.61569 s  ClockTime = 2 s

Time = 4.925s

Courant Number mean: 0.0441617 max: 0.184374
smoothSolver:  Solving for Ux, Initial residual = 6.7702e-05, Final residual = 1.25091e-06, No Iterations 1
smoothSolver:  Solving for Uy, Initial residual = 7.5689e-05, Final residual = 1.39479e-06, No Iterations 1
DICPCG:  Solving for p, Initial residual = 4.06837e-05, Final residual = 1.95732e-06, No Iterations 16
time step continuity errors : sum local = 4.48147e-10, global = -1.53469e-19, cumulative = 7.31002e-19
DICPCG:  Solving for p, Initial residual = 8.68935e-06, Final residual = 7.35101e-07, No Iterations 34
time step continuity errors : sum local = 1.34149e-10, global = -2.57816e-20, cumulative = 7.0522e-19
ExecutionTime = 2.61813 s  ClockTime = 2 s

Time = 4.93s

Courant Number mean: 0.044166 max: 0.184375
smoothSolver:  Solving for Ux, Initial residual = 6.7514e-05, Final residual = 1.24741e-06, No Iterations 1
smoothSolver:  Solving for Uy, Initial residual = 7.54919e-05, Final residual = 1.39116e-06, No Iterations 1
DICPCG:  Solving for p, Initial residual = 4.10211e-05, Final residual = 1.47988e-06, No Iterations 16
time step continuity errors : sum local = 2.98554e-10, global = -4.89732e-20, cumulative = 6.56247e-19
DICPCG:  Solving for p, Initial residual = 8.56524e-06, Final residual = 6.67668e-07, No Iterations 10
time step continuity errors : sum local = 1.46063e-10, global = -1.09787e-19, cumulative = 5.4646e-19
ExecutionTime = 2.61988 s  ClockTime = 2 s

Time = 4.935s

Courant Number mean: 0.0441702 max: 0.184375
smoothSolver:  Solving for Ux, Initial residual = 6.73425e-05, Final residual = 1.24427e-06, No Iterations 1
smoothSolver:  Solving for Uy, Initial residual = 7.52821e-05, Final residual = 1.38728e-06, No Iterations 1
DICPCG:  Solving for p, Initial residual = 4.04639e-05, Final residual = 1.99219e-06, No Iterations 16
time step continuity errors : sum local = 4.57859e-10, global = -5.3708e-20, cumulative = 4.92752e-19
DICPCG:  Solving for p, Initial residual = 8.66471e-06, Final residual = 7.35095e-07, No Iterations 34
time step continuity errors : sum local = 1.34159e-10, global = -6.19732e-20, cumulative = 4.30779e-19
ExecutionTime = 2.6223 s  ClockTime = 2 s

Time = 4.94s

Courant Number mean: 0.0441745 max: 0.184376
smoothSolver:  Solving for Ux, Initial residual = 6.71544e-05, Final residual = 1.24077e-06, No Iterations 1
smoothSolver:  Solving for Uy, Initial residual = 7.50875e-05, Final residual = 1.38369e-06, No Iterations 1
DICPCG:  Solving for p, Initial residual = 4.0823e-05, Final residual = 1.46836e-06, No Iterations 16
time step continuity errors : sum local = 2.94192e-10, global = 1.05217e-21, cumulative = 4.31831e-19
DICPCG:  Solving for p, Initial residual = 8.51779e-06, Final residual = 6.56863e-07, No Iterations 10
time step continuity errors : sum local = 1.42051e-10, global = 9.42779e-20, cumulative = 5.26109e-19
ExecutionTime = 2.62409 s  ClockTime = 2 s

Time = 4.945s

Courant Number mean: 0.0441787 max: 0.184377
smoothSolver:  Solving for Ux, Initial residual = 6.69841e-05, Final residual = 1.23765e-06, No Iterations 1
smoothSolver:  Solving for Uy, Initial residual = 7.48784e-05, Final residual = 1.37983e-06, No Iterations 1
DICPCG:  Solving for p, Initial residual = 4.02163e-05, Final residual = 1.93854e-06, No Iterations 16
time step continuity errors : sum local = 4.44292e-10, global = -5.77504e-20, cumulative = 4.68359e-19
DICPCG:  Solving for p, Initial residual = 8.60071e-06, Final residual = 7.26043e-07, No Iterations 34
time step continuity errors : sum local = 1.32521e-10, global = 1.31298e-19, cumulative = 5.99656e-19
ExecutionTime = 2.62651 s  ClockTime = 2 s

Time = 4.95s

Courant Number mean: 0.0441829 max: 0.184378
smoothSolver:  Solving for Ux, Initial residual = 6.67981e-05, Final residual = 1.23419e-06, No Iterations 1
smoothSolver:  Solving for Uy, Initial residual = 7.46835e-05, Final residual = 1.37624e-06, No Iterations 1
DICPCG:  Solving for p, Initial residual = 4.05562e-05, Final residual = 1.46109e-06, No Iterations 16
time step continuity errors : sum local = 2.94661e-10, global = 8.98649e-20, cumulative = 6.89521e-19
DICPCG:  Solving for p, Initial residual = 8.47557e-06, Final residual = 6.60879e-07, No Iterations 10
time step continuity errors : sum local = 1.44417e-10, global = 4.35329e-20, cumulative = 7.33054e-19
ExecutionTime = 2.62832 s  ClockTime = 2 s

Time = 4.955s

Courant Number mean: 0.0441871 max: 0.184378
smoothSolver:  Solving for Ux, Initial residual = 6.66285e-05, Final residual = 1.23107e-06, No Iterations 1
smoothSolver:  Solving for Uy, Initial residual = 7.4476e-05, Final residual = 1.3724e-06, No Iterations 1
DICPCG:  Solving for p, Initial residual = 4.00025e-05, Final residual = 1.96503e-06, No Iterations 16
time step continuity errors : sum local = 4.51732e-10, global = -7.57755e-20, cumulative = 6.57279e-19
DICPCG:  Solving for p, Initial residual = 8.57284e-06, Final residual = 7.26805e-07, No Iterations 34
time step continuity errors : sum local = 1.32662e-10, global = 2.76899e-20, cumulative = 6.84969e-19
ExecutionTime = 2.63083 s  ClockTime = 2 s

Time = 4.96s

Courant Number mean: 0.0441913 max: 0.184379
smoothSolver:  Solving for Ux, Initial residual = 6.64426e-05, Final residual = 1.22762e-06, No Iterations 1
smoothSolver:  Solving for Uy, Initial residual = 7.42832e-05, Final residual = 1.36885e-06, No Iterations 1
DICPCG:  Solving for p, Initial residual = 4.03594e-05, Final residual = 1.45064e-06, No Iterations 16
time step continuity errors : sum local = 2.90928e-10, global = 2.2314e-20, cumulative = 7.07283e-19
DICPCG:  Solving for p, Initial residual = 8.42895e-06, Final residual = 6.51723e-07, No Iterations 10
time step continuity errors : sum local = 1.41093e-10, global = 9.4608e-20, cumulative = 8.01891e-19
ExecutionTime = 2.63272 s  ClockTime = 2 s

Time = 4.965s

Courant Number mean: 0.0441955 max: 0.18438
smoothSolver:  Solving for Ux, Initial residual = 6.62741e-05, Final residual = 1.22452e-06, No Iterations 1
smoothSolver:  Solving for Uy, Initial residual = 7.40764e-05, Final residual = 1.36503e-06, No Iterations 1
DICPCG:  Solving for p, Initial residual = 3.97619e-05, Final residual = 1.92036e-06, No Iterations 16
time step continuity errors : sum local = 4.40479e-10, global = -2.55764e-21, cumulative = 7.99333e-19
DICPCG:  Solving for p, Initial residual = 8.51295e-06, Final residual = 7.17146e-07, No Iterations 34
time step continuity errors : sum local = 1.30918e-10, global = 1.68612e-20, cumulative = 8.16194e-19
ExecutionTime = 2.63529 s  ClockTime = 2 s

Time = 4.97s

Courant Number mean: 0.0441996 max: 0.18438
smoothSolver:  Solving for Ux, Initial residual = 6.60901e-05, Final residual = 1.2211e-06, No Iterations 1
smoothSolver:  Solving for Uy, Initial residual = 7.38837e-05, Final residual = 1.36148e-06, No Iterations 1
DICPCG:  Solving for p, Initial residual = 4.01026e-05, Final residual = 1.44268e-06, No Iterations 16
time step continuity errors : sum local = 2.90884e-10, global = -1.93279e-20, cumulative = 7.96866e-19
DICPCG:  Solving for p, Initial residual = 8.38686e-06, Final residual = 6.54238e-07, No Iterations 10
time step continuity errors : sum local = 1.42836e-10, global = 9.99946e-20, cumulative = 8.96861e-19
ExecutionTime = 2.63722 s  ClockTime = 2 s

Time = 4.975s

Courant Number mean: 0.0442038 max: 0.184381
smoothSolver:  Solving for Ux, Initial residual = 6.59223e-05, Final residual = 1.21802e-06, No Iterations 1
smoothSolver:  Solving for Uy, Initial residual = 7.36784e-05, Final residual = 1.35769e-06, No Iterations 1
DICPCG:  Solving for p, Initial residual = 3.95531e-05, Final residual = 1.93993e-06, No Iterations 16
time step continuity errors : sum local = 4.46054e-10, global = -5.72326e-20, cumulative = 8.39628e-19
DICPCG:  Solving for p, Initial residual = 8.4824e-06, Final residual = 7.18489e-07, No Iterations 34
time step continuity errors : sum local = 1.31158e-10, global = -5.17583e-20, cumulative = 7.8787e-19
ExecutionTime = 2.63971 s  ClockTime = 2 s

Time = 4.98s

Courant Number mean: 0.0442079 max: 0.184382
smoothSolver:  Solving for Ux, Initial residual = 6.57386e-05, Final residual = 1.2146e-06, No Iterations 1
smoothSolver:  Solving for Uy, Initial residual = 7.34875e-05, Final residual = 1.35418e-06, No Iterations 1
DICPCG:  Solving for p, Initial residual = 3.9907e-05, Final residual = 1.43328e-06, No Iterations 16
time step continuity errors : sum local = 2.87693e-10, global = -2.67246e-20, cumulative = 7.61145e-19
DICPCG:  Solving for p, Initial residual = 8.341e-06, Final residual = 6.46425e-07, No Iterations 10
time step continuity errors : sum local = 1.40073e-10, global = -1.51035e-20, cumulative = 7.46042e-19
ExecutionTime = 2.64161 s  ClockTime = 2 s

Time = 4.985s

Courant Number mean: 0.0442121 max: 0.184382
smoothSolver:  Solving for Ux, Initial residual = 6.55718e-05, Final residual = 1.21154e-06, No Iterations 1
smoothSolver:  Solving for Uy, Initial residual = 7.3283e-05, Final residual = 1.35039e-06, No Iterations 1
DICPCG:  Solving for p, Initial residual = 3.93198e-05, Final residual = 1.90224e-06, No Iterations 16
time step continuity errors : sum local = 4.36623e-10, global = 4.56422e-20, cumulative = 7.91684e-19
DICPCG:  Solving for p, Initial residual = 8.42562e-06, Final residual = 7.08365e-07, No Iterations 34
time step continuity errors : sum local = 1.29334e-10, global = 6.12817e-20, cumulative = 8.52966e-19
ExecutionTime = 2.6441 s  ClockTime = 2 s

Time = 4.99s

Courant Number mean: 0.0442162 max: 0.184383
smoothSolver:  Solving for Ux, Initial residual = 6.53897e-05, Final residual = 1.20815e-06, No Iterations 1
smoothSolver:  Solving for Uy, Initial residual = 7.30924e-05, Final residual = 1.34689e-06, No Iterations 1
DICPCG:  Solving for p, Initial residual = 3.96585e-05, Final residual = 1.42475e-06, No Iterations 16
time step continuity errors : sum local = 2.87232e-10, global = 2.98844e-20, cumulative = 8.8285e-19
DICPCG:  Solving for p, Initial residual = 8.29907e-06, Final residual = 6.47736e-07, No Iterations 10
time step continuity errors : sum local = 1.41313e-10, global = 1.47442e-19, cumulative = 1.03029e-18
ExecutionTime = 2.64599 s  ClockTime = 2 s

Time = 4.995s

Courant Number mean: 0.0442203 max: 0.184384
smoothSolver:  Solving for Ux, Initial residual = 6.52237e-05, Final residual = 1.2051e-06, No Iterations 1
smoothSolver:  Solving for Uy, Initial residual = 7.28892e-05, Final residual = 1.34314e-06, No Iterations 1
DICPCG:  Solving for p, Initial residual = 3.91152e-05, Final residual = 1.91636e-06, No Iterations 16
time step continuity errors : sum local = 4.40717e-10, global = 7.13055e-20, cumulative = 1.1016e-18
DICPCG:  Solving for p, Initial residual = 8.39295e-06, Final residual = 7.10271e-07, No Iterations 34
time step continuity errors : sum local = 1.29671e-10, global = 2.64921e-20, cumulative = 1.12809e-18
ExecutionTime = 2.64839 s  ClockTime = 2 s

Time = 5s

Courant Number mean: 0.0442244 max: 0.184384
smoothSolver:  Solving for Ux, Initial residual = 6.50419e-05, Final residual = 1.20172e-06, No Iterations 1
smoothSolver:  Solving for Uy, Initial residual = 7.27003e-05, Final residual = 1.33966e-06, No Iterations 1
DICPCG:  Solving for p, Initial residual = 3.94645e-05, Final residual = 1.41632e-06, No Iterations 16
time step continuity errors : sum local = 2.84501e-10, global = -7.57375e-20, cumulative = 1.05235e-18
DICPCG:  Solving for p, Initial residual = 8.25396e-06, Final residual = 6.41013e-07, No Iterations 10
time step continuity errors : sum local = 1.39004e-10, global = -1.20596e-19, cumulative = 9.31756e-19
ExecutionTime = 2.65393 s  ClockTime = 2 s

End

