
postProcess has been superseded and replaced by the more general foamPostProcess
utility which will be executed instead:

/*---------------------------------------------------------------------------*\
  =========                 |
  \\      /  F ield         | OpenFOAM: The Open Source CFD Toolbox
   \\    /   O peration     | Website:  https://openfoam.org
    \\  /    A nd           | Version:  11
     \\/     M anipulation  |
\*---------------------------------------------------------------------------*/
Build  : 11-e1fc8c682ae6
Exec   : foamPostProcess -case /workspace/cases/lid_driven_cavity -func writeCellCentres -latestTime
Date   : Jun 14 2026
Time   : 16:56:12
Host   : "f8a7de1b6576"
PID    : 195
I/O    : uncollated
Case   : /workspace/cases/lid_driven_cavity
nProcs : 1
sigFpe : Enabling floating point exception trapping (FOAM_SIGFPE).
fileModificationChecking : Monitoring run-time modified files using timeStampMaster (fileModificationSkew 10)
allowSystemOperations : Allowing user-supplied system call operations

// * * * * * * * * * * * * * * * * * * * * * * * * * * * * * * * * * * * * * //
Create time

Create mesh for time = 5

Time = 5s

Reading fields:

Executing functionObjects
    Writing cell-centre field C to 5
    Writing the x component field of the cell-centres Ccx to 5
    Writing the y component field of the cell-centres Ccy to 5
    Writing the z component field of the cell-centres Ccz to 5

End

